Auto-Transcript Start Time:  15:38:26, 11 Apr 2024 GMT Summer Time 
Current Directory: "C:\Users\s420833\OneDrive - Cranfield University\Group Project_2023-24\Simulations\1D_Channel_Flow-ReynoldsStressTransportModel\Re_180"

              Welcome to ANSYS Fluent 2023 R2

              Copyright 1987-2023 ANSYS, Inc. All Rights Reserved.
              Unauthorized use, distribution or duplication is prohibited.
              This product is subject to U.S. laws governing export and re-export.
              For full Legal Notice, see documentation.

Build Time: May 29 2023 07:52:07 EDT  Build Id: 10212  
 
Connected License Server List:	1055@cclic-2.central.cranfield.ac.uk

     --------------------------------------------------------------
     This is an academic version of ANSYS FLUENT. Usage of this product
     license is limited to the terms and conditions specified in your ANSYS
     license form, additional terms section.
     --------------------------------------------------------------
Host spawning Node 0 on machine "SOW7132F" (win64).

-------------------------------------------------------------------------------
ID    Hostname  Core  O.S.         PID    Vendor                         
-------------------------------------------------------------------------------
n3    SOW7132F  4/8  Windows-x64  18580  Intel(R) Core(TM) i7-6700      
n2    SOW7132F  3/8  Windows-x64  14864  Intel(R) Core(TM) i7-6700      
n1    SOW7132F  2/8  Windows-x64  9132   Intel(R) Core(TM) i7-6700      
n0*   SOW7132F  1/8  Windows-x64  17864  Intel(R) Core(TM) i7-6700      
host  SOW7132F       Windows-x64  8716   Intel(R) Core(TM) i7-6700      

MPI Option Selected: intel
Selected system interconnect: default
-------------------------------------------------------------------------------

Cleanup script file is C:\\Users\\s420833\\OneDrive - Cranfield University\\Group Project_2023-24\\Simulations\\1D_Channel_Flow-ReynoldsStressTransportModel\\Re_180\\cleanup-fluent-SOW7132F-8716.bat

> (cx-gui-do cx-activate-item "Key Behavioral Changes*PanelButtons*PushButton1(OK)")
(cx-gui-do cx-activate-item "MenuBar*ReadSubMenu*Mesh...")
(cx-gui-do cx-activate-item "MenuBar*ReadSubMenu*Journal...")
(cx-gui-do cx-set-file-dialog-entries "Select File" '( "1D_ChannelFlow_RSTM_Re-180") "All Files (*)")

Reading journal file C:/Users/s420833/OneDrive - Cranfield University/Group Project_2023-24/Simulations/1D_Channel_Flow-ReynoldsStressTransportModel/Re_180/1D_ChannelFlow_RSTM_Re-180...

> /file/set-tui-version "23.2"

> (cx-gui-do cx-activate-item "MenuBar*ReadSubMenu*Mesh...")



> (cx-gui-do cx-set-file-dialog-entries "Select File" '( "Re-180-mesh.msh") "All Files (*)")

SOW7132F is already loaded (22.1064).                       Process affinity not being set.
Reading "C:/Users/s420833/OneDrive - Cranfield University/Group Project_2023-24/Simulations/1D_Channel_Flow-ReynoldsStressTransportModel/Re_180\Re-180-mesh.msh"...
Buffering for file scan...

     768 nodes.
     191 hexahedral cells, zone 10.
     190 quadrilateral interior faces, zone 11.
       1 quadrilateral wall faces, zone 12.
       1 quadrilateral wall faces, zone 13.
     191 quadrilateral velocity-inlet faces, zone 14.
     191 quadrilateral pressure-outlet faces, zone 15.
     191 quadrilateral wall faces, zone 16.
     191 quadrilateral wall faces, zone 17.

Building...
     mesh
	auto partitioning mesh by Metis (fast),
	distributing mesh
		parts....,
		faces....,
		nodes....,
		cells....,
        bandwidth reduction using Reverse Cuthill-McKee: 1/1 = 1
     materials,
     interface,
     domains,
     zones,
	side_z1
	side_z0
	outlet
	inlet
	bottom_wall
	top_wall
	int_fluid
	fluid
     parallel,
Done.



> (cx-gui-do cx-set-list-tree-selections "NavigationPane*Frame2*Table1*List_Tree2" (list "Setup|Models|Viscous (SST k-omega)"))



> (cx-gui-do cx-set-list-tree-selections "NavigationPane*Frame2*Table1*List_Tree2" (list "Setup|Models|Viscous (SST k-omega)"))



> (cx-gui-do cx-activate-item "NavigationPane*Frame2*Table1*List_Tree2")



> (cx-gui-do cx-set-list-tree-selections "NavigationPane*Frame2*Table1*List_Tree2" (list "Setup|Models|Viscous (SST k-omega)"))



> (cx-gui-do cx-set-toggle-button2 "Viscous Model*Table1*ToggleBox1(Model)*Reynolds Stress" #t)



> (cx-gui-do cx-activate-item "Viscous Model*Table1*ToggleBox1(Model)*Reynolds Stress")



> (cx-gui-do cx-set-toggle-button2 "Viscous Model*Table1*ToggleBox8(Reynolds-Stress Model)*Quadratic Pressure-Strain" #t)



> (cx-gui-do cx-activate-item "Viscous Model*Table1*ToggleBox8(Reynolds-Stress Model)*Quadratic Pressure-Strain")



> (cx-gui-do cx-set-toggle-button2 "Viscous Model*Table1*ToggleBox8(Reynolds-Stress Model)*Stress-Omega" #t)



> (cx-gui-do cx-activate-item "Viscous Model*Table1*ToggleBox8(Reynolds-Stress Model)*Stress-Omega")



> (cx-gui-do cx-set-toggle-button2 "Viscous Model*Table1*ToggleBox8(Reynolds-Stress Model)*Stress-BSL" #t)



> (cx-gui-do cx-activate-item "Viscous Model*Table1*ToggleBox8(Reynolds-Stress Model)*Stress-BSL")



> (cx-gui-do cx-set-toggle-button2 "Viscous Model*Table1*ToggleBox8(Reynolds-Stress Model)*Linear Pressure-Strain" #t)



> (cx-gui-do cx-activate-item "Viscous Model*Table1*ToggleBox8(Reynolds-Stress Model)*Linear Pressure-Strain")



> (cx-gui-do cx-activate-item "Viscous Model*PanelButtons*PushButton1(OK)")
(cx-gui-do cx-activate-item "Viscous Model*PanelButtons*PushButton1(OK)")

Adjusting the following setting:
Changing Discretization Scheme for Turbulent Kinetic Energy:   from: Second Order Upwind   to: First Order Upwind



> (cx-gui-do cx-set-list-tree-selections "NavigationPane*Frame2*Table1*List_Tree2" (list "Setup|Models|Viscous (Reynolds Stress, Linear Pressure-Strain, Standard Wall Fn)"))



> (cx-gui-do cx-set-list-tree-selections "NavigationPane*Frame2*Table1*List_Tree2" (list "Setup|Materials|Fluid|air"))



> (cx-gui-do cx-set-list-tree-selections "NavigationPane*Frame2*Table1*List_Tree2" (list "Setup|Materials|Fluid|air"))



> (cx-gui-do cx-activate-item "NavigationPane*Frame2*Table1*List_Tree2")



> (cx-gui-do cx-set-list-tree-selections "NavigationPane*Frame2*Table1*List_Tree2" (list "Setup|Materials|Fluid|air"))



> (cx-gui-do cx-set-real-entry-list "Create/Edit Materials*RealEntry16" '( 0.00035))



> (cx-gui-do cx-set-real-entry-list "Create/Edit Materials*RealEntry10" '( 1))



> (cx-gui-do cx-activate-item "Create/Edit Materials*PanelButtons*PushButton3(Change/Create)")



> (cx-gui-do cx-activate-item "Create/Edit Materials*PanelButtons*PushButton1(Close)")
(cx-gui-do cx-activate-item "Create/Edit Materials*PanelButtons*PushButton1(Close)")



> (cx-gui-do cx-set-list-tree-selections "NavigationPane*Frame2*Table1*List_Tree2" (list "Setup|Cell Zone Conditions|Fluid|fluid (fluid, id=10)"))



> (cx-gui-do cx-set-list-tree-selections "NavigationPane*Frame2*Table1*List_Tree2" (list "Setup|Cell Zone Conditions|Fluid|fluid (fluid, id=10)"))



> (cx-gui-do cx-activate-item "NavigationPane*Frame2*Table1*List_Tree2")
(cx-gui-do cx-activate-tab-index "Fluid*Frame2*Table3*Frame1" 0)
(cx-gui-do cx-activate-tab-index "Fluid*Frame2*Table3*Frame1" 1)
(cx-gui-do cx-activate-tab-index "Fluid*Frame2*Table3*Frame1" 0)
(cx-gui-do cx-activate-tab-index "Fluid*Frame2*Table3*Frame1" 2)
(cx-gui-do cx-activate-tab-index "Fluid*Frame2*Table3*Frame1" 0)
(cx-gui-do cx-activate-tab-index "Fluid*Frame2*Table3*Frame1" 2)
(cx-gui-do cx-activate-tab-index "Fluid*Frame2*Table3*Frame1" 0)
(cx-gui-do cx-activate-tab-index "Fluid*Frame2*Table3*Frame1" 3)
(cx-gui-do cx-activate-tab-index "Fluid*Frame2*Table3*Frame1" 0)
(cx-gui-do cx-activate-tab-index "Fluid*Frame2*Table3*Frame1" 4)
(cx-gui-do cx-activate-tab-index "Fluid*Frame2*Table3*Frame1" 0)
(cx-gui-do cx-activate-tab-index "Fluid*Frame2*Table3*Frame1" 5)
(cx-gui-do cx-activate-tab-index "Fluid*Frame2*Table3*Frame1" 0)
(cx-gui-do cx-activate-tab-index "Fluid*Frame2*Table3*Frame1" 6)
(cx-gui-do cx-activate-tab-index "Fluid*Frame2*Table3*Frame1" 0)
(cx-gui-do cx-activate-tab-index "Fluid*Frame2*Table3*Frame1" 7)
(cx-gui-do cx-activate-tab-index "Fluid*Frame2*Table3*Frame1" 0)
(cx-gui-do cx-activate-tab-index "Fluid*Frame2*Table3*Frame1" 8)
(cx-gui-do cx-activate-tab-index "Fluid*Frame2*Table3*Frame1" 0)



> (cx-gui-do cx-set-list-tree-selections "NavigationPane*Frame2*Table1*List_Tree2" (list "Setup|Cell Zone Conditions|Fluid|fluid (fluid, id=10)"))



> (cx-gui-do cx-activate-tab-index "Fluid*Frame2*Table3*Frame1" 0)



> (cx-gui-do cx-activate-tab-index "Fluid*Frame2*Table3*Frame1" 1)
(cx-gui-do cx-activate-tab-index "Fluid*Frame2*Table3*Frame1" 1)



> (cx-gui-do cx-activate-tab-index "Fluid*Frame2*Table3*Frame1" 0)
(cx-gui-do cx-activate-tab-index "Fluid*Frame2*Table3*Frame1" 0)



> (cx-gui-do cx-activate-tab-index "Fluid*Frame2*Table3*Frame1" 2)
(cx-gui-do cx-activate-tab-index "Fluid*Frame2*Table3*Frame1" 2)



> (cx-gui-do cx-activate-tab-index "Fluid*Frame2*Table3*Frame1" 0)
(cx-gui-do cx-activate-tab-index "Fluid*Frame2*Table3*Frame1" 0)



> (cx-gui-do cx-activate-tab-index "Fluid*Frame2*Table3*Frame1" 2)
(cx-gui-do cx-activate-tab-index "Fluid*Frame2*Table3*Frame1" 2)



> (cx-gui-do cx-activate-tab-index "Fluid*Frame2*Table3*Frame1" 0)
(cx-gui-do cx-activate-tab-index "Fluid*Frame2*Table3*Frame1" 0)



> (cx-gui-do cx-activate-tab-index "Fluid*Frame2*Table3*Frame1" 3)
(cx-gui-do cx-activate-tab-index "Fluid*Frame2*Table3*Frame1" 3)



> (cx-gui-do cx-activate-tab-index "Fluid*Frame2*Table3*Frame1" 0)
(cx-gui-do cx-activate-tab-index "Fluid*Frame2*Table3*Frame1" 0)



> (cx-gui-do cx-activate-tab-index "Fluid*Frame2*Table3*Frame1" 4)
(cx-gui-do cx-activate-tab-index "Fluid*Frame2*Table3*Frame1" 4)



> (cx-gui-do cx-activate-tab-index "Fluid*Frame2*Table3*Frame1" 0)
(cx-gui-do cx-activate-tab-index "Fluid*Frame2*Table3*Frame1" 0)



> (cx-gui-do cx-activate-tab-index "Fluid*Frame2*Table3*Frame1" 5)
(cx-gui-do cx-activate-tab-index "Fluid*Frame2*Table3*Frame1" 5)



> (cx-gui-do cx-activate-tab-index "Fluid*Frame2*Table3*Frame1" 0)
(cx-gui-do cx-activate-tab-index "Fluid*Frame2*Table3*Frame1" 0)



> (cx-gui-do cx-activate-tab-index "Fluid*Frame2*Table3*Frame1" 6)
(cx-gui-do cx-activate-tab-index "Fluid*Frame2*Table3*Frame1" 6)



> (cx-gui-do cx-activate-tab-index "Fluid*Frame2*Table3*Frame1" 0)
(cx-gui-do cx-activate-tab-index "Fluid*Frame2*Table3*Frame1" 0)



> (cx-gui-do cx-activate-tab-index "Fluid*Frame2*Table3*Frame1" 7)
(cx-gui-do cx-activate-tab-index "Fluid*Frame2*Table3*Frame1" 7)



> (cx-gui-do cx-activate-tab-index "Fluid*Frame2*Table3*Frame1" 0)
(cx-gui-do cx-activate-tab-index "Fluid*Frame2*Table3*Frame1" 0)



> (cx-gui-do cx-activate-tab-index "Fluid*Frame2*Table3*Frame1" 8)
(cx-gui-do cx-activate-tab-index "Fluid*Frame2*Table3*Frame1" 8)



> (cx-gui-do cx-activate-tab-index "Fluid*Frame2*Table3*Frame1" 0)
(cx-gui-do cx-activate-tab-index "Fluid*Frame2*Table3*Frame1" 0)



> (cx-gui-do cx-enable-apply-button "Fluid")



> (cx-gui-do cx-set-toggle-button2 "Fluid*Frame2*Table2*CheckButton7(Source Terms)" #t)



> (cx-gui-do cx-activate-item "Fluid*Frame2*Table2*CheckButton7(Source Terms)")



> (cx-gui-do cx-activate-tab-index "Fluid*Frame2*Table3*Frame1" 6)
(cx-gui-do cx-activate-tab-index "Fluid*Frame2*Table3*Frame1" 6)



> (cx-gui-do cx-activate-item "Fluid*Frame2*Table3*Frame1*Frame8(Source Terms)*Table1*Table1*Table2*PushButton2(Edit)")

(cx-gui-do cx-set-integer-entry "X Momentum sources*Table1*IntegerEntry1(Number of X Momentum sources)" 1)

(cx-gui-do cx-activate-item "X Momentum sources*Table1*IntegerEntry1(Number of X Momentum sources)")

(cx-gui-do cx-set-expression-entry "X Momentum sources*Table1*Table2*Table1*ExpressionEntry1(1)" '("0" . 0))

(cx-gui-do cx-set-expression-entry "X Momentum sources*Table1*Table2*Table1*ExpressionEntry1(1)" '("0.0040616" . 0))

(cx-gui-do cx-activate-item "X Momentum sources*PanelButtons*PushButton1(OK)")
(cx-gui-do cx-activate-item "X Momentum sources*PanelButtons*PushButton1(OK)")
(cx-gui-do cx-enable-apply-button "Fluid")



> (cx-gui-do cx-activate-item "Fluid*PanelButtons*PushButton1(OK)")
(cx-gui-do cx-activate-item "Fluid*PanelButtons*PushButton1(OK)")



> (cx-gui-do cx-activate-item "Fluid*PanelButtons*PushButton2(Cancel)")
(cx-gui-do cx-activate-item "Fluid*PanelButtons*PushButton2(Cancel)")



> /mesh/modify-zones/make-periodic 

The /mesh/modify-zones/make-periodic text command is deprecated and will be removed in a future release. 
It is recommended that you use the following text command instead: /mesh/modify-zones/create-periodic-interface.

16 17 no yes yes 
  computed translation deltas: 0.000000 -0.000000 0.100000 
The following option has been enabled to improve particle tracking with periodic boundaries.
  define/models/dpm/numerics/high-resolution-tracking/use-quad-face-centroid?

To overide this, the following option must first be disabled.
  define/models/dpm/numerics/high-resolution-tracking/always-use-face-centroid-with-periodics?



  created periodic zones.

> /mesh/modify-zones/make-periodic 

The /mesh/modify-zones/make-periodic text command is deprecated and will be removed in a future release. 
It is recommended that you use the following text command instead: /mesh/modify-zones/create-periodic-interface.

14 15 no yes yes 
  computed translation deltas: 0.100000 0.000000 -0.000000 

  created periodic zones.

> (cx-gui-do cx-set-list-tree-selections "NavigationPane*Frame2*Table1*List_Tree2" (list "Solution|Methods"))



> (cx-gui-do cx-set-list-tree-selections "NavigationPane*Frame2*Table1*List_Tree2" (list "Solution|Methods"))



> (cx-gui-do cx-activate-item "NavigationPane*Frame2*Table1*List_Tree2")



> (cx-gui-do cx-set-list-tree-selections "NavigationPane*Frame2*Table1*List_Tree2" (list "Solution|Methods"))



> (cx-gui-do cx-set-list-selections "Solution Methods*Table1*Table3(Spatial Discretization)*DropDownList3(Momentum)" '( 0))



> (cx-gui-do cx-activate-item "Solution Methods*Table1*Table3(Spatial Discretization)*DropDownList3(Momentum)")



> (cx-gui-do cx-set-list-tree-selections "NavigationPane*Frame2*Table1*List_Tree2" (list "Solution|Controls"))



> (cx-gui-do cx-set-list-tree-selections "NavigationPane*Frame2*Table1*List_Tree2" (list "Solution|Controls"))



> (cx-gui-do cx-activate-item "NavigationPane*Frame2*Table1*List_Tree2")



> (cx-gui-do cx-set-list-tree-selections "NavigationPane*Frame2*Table1*List_Tree2" (list "Solution|Controls"))



> (cx-gui-do cx-set-list-tree-selections "NavigationPane*Frame2*Table1*List_Tree2" (list "Solution|Report Definitions"))



> (cx-gui-do cx-set-list-tree-selections "NavigationPane*Frame2*Table1*List_Tree2" (list "Solution|Report Definitions"))



> (cx-gui-do cx-activate-item "NavigationPane*Frame2*Table1*List_Tree2")



> (cx-gui-do cx-set-list-tree-selections "NavigationPane*Frame2*Table1*List_Tree2" (list "Solution|Report Definitions"))



> (cx-gui-do cx-activate-item "Report Definitions*Table1*ButtonBox3*PushButton1(New)")



> (cx-gui-do cx-activate-item "MenuBar*Volume ReportSubMenu*Volume-Average...")



> (cx-gui-do cx-set-text-entry "Volume Report Definition*Table1*Table1*TextEntry1(Name)" "mean-velocity")



> (cx-gui-do cx-activate-item "Volume Report Definition*Table1*Table1*TextEntry1(Name)")



> (cx-gui-do cx-set-list-selections "Volume Report Definition*Table1*Table2*DropDownList2(Field Variable)" '( 2))



> (cx-gui-do cx-activate-item "Volume Report Definition*Table1*Table2*DropDownList2(Field Variable)")



> (cx-gui-do cx-set-list-selections "Volume Report Definition*Table1*Table2*DropDownList3" '( 1))



> (cx-gui-do cx-activate-item "Volume Report Definition*Table1*Table2*DropDownList3")



> (cx-gui-do cx-set-list-selections "Volume Report Definition*Table1*Table2*List6(Cell Zones)" '( 0))



> (cx-gui-do cx-activate-item "Volume Report Definition*Table1*Table2*List6(Cell Zones)")



> (cx-gui-do cx-activate-item "Volume Report Definition*PanelButtons*PushButton1(OK)")
(cx-gui-do cx-activate-item "Volume Report Definition*PanelButtons*PushButton1(OK)")



> (cx-gui-do cx-activate-item "Report Definitions*PanelButtons*PushButton1(Close)")
(cx-gui-do cx-activate-item "Report Definitions*PanelButtons*PushButton1(Close)")



> (cx-gui-do cx-set-list-tree-selections "NavigationPane*Frame2*Table1*List_Tree2" (list "Solution|Monitors|Residual"))



> (cx-gui-do cx-set-list-tree-selections "NavigationPane*Frame2*Table1*List_Tree2" (list "Solution|Monitors|Residual"))



> (cx-gui-do cx-activate-item "NavigationPane*Frame2*Table1*List_Tree2")



> (cx-gui-do cx-set-list-tree-selections "NavigationPane*Frame2*Table1*List_Tree2" (list "Solution|Monitors|Residual"))



> (cx-gui-do cx-set-real-entry-list "Residual Monitors*Table1*Table2*Table1*Table1(Equations)*RealEntry11" '( 1e-08))



> (cx-gui-do cx-set-real-entry-list "Residual Monitors*Table1*Table2*Table1*Table1(Equations)*RealEntry17" '( 1e-08))



> (cx-gui-do cx-set-real-entry-list "Residual Monitors*Table1*Table2*Table1*Table1(Equations)*RealEntry23" '( 1e-08))



> (cx-gui-do cx-set-real-entry-list "Residual Monitors*Table1*Table2*Table1*Table1(Equations)*RealEntry29" '( 1e-08))



> (cx-gui-do cx-set-real-entry-list "Residual Monitors*Table1*Table2*Table1*Table1(Equations)*RealEntry35" '( 1e-08))



> (cx-gui-do cx-set-real-entry-list "Residual Monitors*Table1*Table2*Table1*Table1(Equations)*RealEntry41" '( 1e-08))



> (cx-gui-do cx-set-real-entry-list "Residual Monitors*Table1*Table2*Table1*Table1(Equations)*RealEntry47" '( 1e-08))



> (cx-gui-do cx-set-real-entry-list "Residual Monitors*Table1*Table2*Table1*Table1(Equations)*RealEntry53" '( 1e-08))



> (cx-gui-do cx-set-real-entry-list "Residual Monitors*Table1*Table2*Table1*Table1(Equations)*RealEntry59" '( 1e-08))



> (cx-gui-do cx-set-real-entry-list "Residual Monitors*Table1*Table2*Table1*Table1(Equations)*RealEntry65" '( 1e-08))



> (cx-gui-do cx-set-real-entry-list "Residual Monitors*Table1*Table2*Table1*Table1(Equations)*RealEntry71" '( 1e-08))



> (cx-gui-do cx-set-real-entry-list "Residual Monitors*Table1*Table2*Table1*Table1(Equations)*RealEntry77" '( 1e-08))



> (cx-gui-do cx-activate-item "Residual Monitors*PanelButtons*PushButton1(OK)")
(cx-gui-do cx-activate-item "Residual Monitors*PanelButtons*PushButton1(OK)")



> (cx-gui-do cx-set-list-tree-selections "NavigationPane*Frame2*Table1*List_Tree2" (list "Solution|Monitors|Report Files|mean-velocity-rfile"))



> (cx-gui-do cx-set-list-tree-selections "NavigationPane*Frame2*Table1*List_Tree2" (list "Solution|Monitors|Report Files|mean-velocity-rfile"))



> (cx-gui-do cx-activate-item "NavigationPane*Frame2*Table1*List_Tree2")



> (cx-gui-do cx-set-list-tree-selections "NavigationPane*Frame2*Table1*List_Tree2" (list "Solution|Monitors|Report Files|mean-velocity-rfile"))



> (cx-gui-do cx-set-list-selections "Edit Report File*Table1*List3(Selected Report Definitions)" '( 0))



> (cx-gui-do cx-activate-item "Edit Report File*Table1*List3(Selected Report Definitions)")



> (cx-gui-do cx-activate-item "Edit Report File*PanelButtons*PushButton1(OK)")
(cx-gui-do cx-activate-item "Edit Report File*PanelButtons*PushButton1(OK)")



> (cx-gui-do cx-set-list-tree-selections "NavigationPane*Frame2*Table1*List_Tree2" (list "Solution|Monitors|Report Plots|mean-velocity-rplot"))



> (cx-gui-do cx-set-list-tree-selections "NavigationPane*Frame2*Table1*List_Tree2" (list "Solution|Monitors|Report Plots|mean-velocity-rplot"))



> (cx-gui-do cx-activate-item "NavigationPane*Frame2*Table1*List_Tree2")



> (cx-gui-do cx-set-list-tree-selections "NavigationPane*Frame2*Table1*List_Tree2" (list "Solution|Monitors|Report Plots|mean-velocity-rplot"))



> (cx-gui-do cx-activate-item "Edit Report Plot*PanelButtons*PushButton1(OK)")
(cx-gui-do cx-activate-item "Edit Report Plot*PanelButtons*PushButton1(OK)")



> (cx-gui-do cx-set-list-tree-selections "NavigationPane*Frame2*Table1*List_Tree2" (list "Solution|Controls"))



> (cx-gui-do cx-set-list-tree-selections "NavigationPane*Frame2*Table1*List_Tree2" (list "Solution|Controls"))



> (cx-gui-do cx-activate-item "NavigationPane*Frame2*Table1*List_Tree2")



> (cx-gui-do cx-set-list-tree-selections "NavigationPane*Frame2*Table1*List_Tree2" (list "Solution|Controls"))



> (cx-gui-do cx-set-list-tree-selections "NavigationPane*Frame2*Table1*List_Tree2" (list "Solution|Initialization"))



> (cx-gui-do cx-set-list-tree-selections "NavigationPane*Frame2*Table1*List_Tree2" (list "Solution|Initialization"))



> (cx-gui-do cx-activate-item "NavigationPane*Frame2*Table1*List_Tree2")



> (cx-gui-do cx-set-list-tree-selections "NavigationPane*Frame2*Table1*List_Tree2" (list "Solution|Initialization"))



> (cx-gui-do cx-set-toggle-button2 "Solution Initialization*Table1*ToggleBox3(Initialization Methods)*Standard Initialization" #t)



> (cx-gui-do cx-activate-item "Solution Initialization*Table1*ToggleBox3(Initialization Methods)*Standard Initialization")



> (cx-gui-do cx-set-real-entry-list "Solution Initialization*Table1*Table7(Initial Values)*RealEntry2(X Velocity)" '( 1))



> (cx-gui-do cx-activate-item "Solution Initialization*Table1*Table7(Initial Values)*RealEntry2(X Velocity)")



> (cx-gui-do cx-activate-item "Solution Initialization*Table1*Frame9*PushButton1(Initialize)")



> (cx-gui-do cx-set-list-tree-selections "NavigationPane*Frame2*Table1*List_Tree2" (list "Solution|Run Calculation"))



> (cx-gui-do cx-set-list-tree-selections "NavigationPane*Frame2*Table1*List_Tree2" (list "Solution|Run Calculation"))



> (cx-gui-do cx-activate-item "NavigationPane*Frame2*Table1*List_Tree2")



> (cx-gui-do cx-set-list-tree-selections "NavigationPane*Frame2*Table1*List_Tree2" (list "Solution|Run Calculation"))



> (cx-gui-do cx-set-integer-entry "Run Calculation*Table1*Table3(Parameters)*Table1*Table1*IntegerEntry1(Number of Iterations)" 500)



> (cx-gui-do cx-activate-item "Run Calculation*Table1*Table3(Parameters)*Table1*Table1*IntegerEntry1(Number of Iterations)")



> (cx-gui-do cx-activate-item "Run Calculation*Table1*Table6(Solution Advancement)*Table1*PushButton1(Calculate)")


  iter  continuity  x-velocity  y-velocity  z-velocity           k     epsilon   uu-stress   vv-stress   ww-stress   uv-stress   vw-stress   uw-stress     time/iter
     1  0.0000e+00  1.0429e-05  6.1844e-05  0.0000e+00  1.0261e-03  2.1112e-01  8.2446e-02  9.5865e-02  1.0314e-02  4.4218e-02  0.0000e+00  0.0000e+00  0:00:00  499
     2  1.0000e+00  7.1008e-05  5.5540e-05  0.0000e+00  2.7327e-03  1.2192e-01  5.8585e-02  4.9998e-02  4.2180e-02  1.3318e-02  0.0000e+00  0.0000e+00  0:08:18  498
     3  1.0000e+00  1.9828e-05  7.2581e-05  0.0000e+00  1.4892e-03  3.6472e-02  3.5049e-02  3.5963e-02  2.9391e-02  3.1679e-03  0.0000e+00  0.0000e+00  0:08:17  497
     4  8.4916e-01  2.0181e-05  5.1642e-05  0.0000e+00  1.0602e-03  1.1474e-02  2.1193e-02  2.4239e-02  1.9119e-02  9.7229e-04  0.0000e+00  0.0000e+00  0:06:37  496
     5  6.9535e-01  1.6051e-05  4.3538e-05  0.0000e+00  8.8969e-04  5.2400e-03  1.4696e-02  1.7982e-02  1.3766e-02  5.6526e-04  0.0000e+00  0.0000e+00  0:05:17  495
     6  6.3418e-01  1.4026e-05  3.4178e-05  1.2718e-18  7.9813e-04  3.4387e-03  1.1503e-02  1.4359e-02  1.0990e-02  3.4657e-04  8.7556e-18  1.6374e-18  0:04:13  494
     7  6.1368e-01  1.2215e-05  2.6136e-05  1.1403e-18  7.4139e-04  2.7210e-03  9.6182e-03  1.2003e-02  9.2996e-03  2.3037e-04  7.2540e-18  1.3955e-18  0:03:22  493
     8  5.6061e-01  1.0760e-05  2.2011e-05  1.0323e-18  7.0499e-04  2.3330e-03  8.3551e-03  1.0301e-02  8.1448e-03  1.7147e-04  6.0933e-18  1.3112e-18  0:02:41  492
     9  4.8739e-01  9.6521e-06  1.8631e-05  9.3670e-19  6.8287e-04  2.0791e-03  7.4685e-03  8.9270e-03  7.3238e-03  1.3616e-04  5.3596e-18  1.1156e-18  0:02:09  491
    10  4.1251e-01  8.9548e-06  1.6850e-05  8.5556e-19  6.6522e-04  1.9018e-03  6.8186e-03  7.8211e-03  6.7108e-03  1.1240e-04  4.6266e-18  1.1038e-18  0:01:43  490
    11  3.4099e-01  8.3989e-06  1.5314e-05  7.7579e-19  6.4885e-04  1.7844e-03  6.3481e-03  6.9564e-03  6.2583e-03  9.1762e-05  3.9008e-18  1.0122e-18  0:01:22  489

  iter  continuity  x-velocity  y-velocity  z-velocity           k     epsilon   uu-stress   vv-stress   ww-stress   uv-stress   vw-stress   uw-stress     time/iter
    12  2.7377e-01  7.8606e-06  1.3890e-05  7.1049e-19  6.2679e-04  1.6725e-03  5.9107e-03  6.2292e-03  5.8386e-03  7.9037e-05  3.1961e-18  9.8740e-19  0:01:05  488
    13  2.1204e-01  7.6694e-06  1.2424e-05  6.4420e-19  6.0514e-04  1.5801e-03  5.5321e-03  5.6015e-03  5.4693e-03  7.2443e-05  2.6755e-18  7.8078e-19  0:00:52  487
    14  1.5845e-01  7.4930e-06  1.1032e-05  5.8279e-19  5.8431e-04  1.4933e-03  5.1746e-03  5.0688e-03  5.1221e-03  6.8348e-05  2.2838e-18  7.3103e-19  0:02:19  486
    15  1.0934e-01  7.2338e-06  9.6281e-06  5.3188e-19  5.6440e-04  1.4157e-03  4.8385e-03  4.6080e-03  4.7955e-03  6.4936e-05  1.9763e-18  8.5719e-19  0:01:51  485
    16  6.8640e-02  6.9051e-06  8.6884e-06  4.9346e-19  5.4559e-04  1.3566e-03  4.5247e-03  4.2003e-03  4.4926e-03  6.1068e-05  1.7185e-18  7.0295e-19  0:01:29  484
    17  3.9716e-02  6.5480e-06  7.7324e-06  4.5327e-19  5.2797e-04  1.3113e-03  4.2355e-03  3.8486e-03  4.2123e-03  5.6836e-05  1.5264e-18  7.4296e-19  0:01:11  483
    18  2.0452e-02  6.1998e-06  6.9446e-06  4.2261e-19  5.1187e-04  1.2662e-03  3.9714e-03  3.5363e-03  3.9577e-03  5.2883e-05  1.3798e-18  7.7939e-19  0:00:56  482
    19  1.2542e-02  5.8841e-06  6.2419e-06  3.9619e-19  4.9736e-04  1.2223e-03  3.7313e-03  3.2623e-03  3.7273e-03  4.8925e-05  1.2967e-18  6.4795e-19  0:00:45  481
    20  9.7647e-03  5.6754e-06  5.5081e-06  3.6741e-19  4.8486e-04  1.1845e-03  3.5158e-03  3.0182e-03  3.5211e-03  4.4831e-05  1.2459e-18  6.1145e-19  0:00:36  480
    21  9.9065e-03  5.5857e-06  5.0405e-06  3.4677e-19  4.7445e-04  1.1512e-03  3.3257e-03  2.8001e-03  3.3351e-03  4.0910e-05  1.2192e-18  6.3449e-19  0:00:29  479
    22  9.5955e-03  5.5148e-06  4.7964e-06  3.2078e-19  4.6483e-04  1.1228e-03  3.1526e-03  2.6049e-03  3.1636e-03  3.6295e-05  1.1842e-18  6.5630e-19  0:00:23  478

  iter  continuity  x-velocity  y-velocity  z-velocity           k     epsilon   uu-stress   vv-stress   ww-stress   uv-stress   vw-stress   uw-stress     time/iter
    23  9.0705e-03  5.4577e-06  4.5093e-06  3.0381e-19  4.5600e-04  1.0968e-03  2.9931e-03  2.4286e-03  3.0058e-03  3.4376e-05  1.1557e-18  6.1534e-19  0:00:18  477
    24  7.8216e-03  5.4103e-06  4.2117e-06  2.8571e-19  4.4815e-04  1.0768e-03  2.8540e-03  2.2686e-03  2.8663e-03  3.3379e-05  1.1222e-18  5.8314e-19  0:00:15  476
    25  6.0925e-03  5.3698e-06  3.9250e-06  2.7028e-19  4.4106e-04  1.0604e-03  2.7238e-03  2.1230e-03  2.7355e-03  3.2574e-05  1.0935e-18  4.7289e-19  0:00:12  475
    26  5.1071e-03  5.3338e-06  3.6594e-06  2.5933e-19  4.3436e-04  1.0456e-03  2.6016e-03  1.9903e-03  2.6127e-03  3.1763e-05  1.0701e-18  5.7031e-19  0:01:44  474
    27  4.8834e-03  5.3009e-06  3.4536e-06  2.4897e-19  4.2801e-04  1.0324e-03  2.4869e-03  1.8688e-03  2.4973e-03  3.0951e-05  1.0571e-18  5.6818e-19  0:01:23  473
    28  5.1786e-03  5.2698e-06  3.3016e-06  2.4329e-19  4.2198e-04  1.0199e-03  2.3788e-03  1.7574e-03  2.3888e-03  3.0053e-05  1.0317e-18  6.8756e-19  0:01:06  472
    29  5.9734e-03  5.2397e-06  3.1525e-06  2.2852e-19  4.1623e-04  1.0080e-03  2.2771e-03  1.6549e-03  2.2865e-03  2.9187e-05  1.0221e-18  7.8043e-19  0:00:53  471
    30  6.5476e-03  5.2244e-06  3.0171e-06  2.1754e-19  4.1292e-04  1.0014e-03  2.1870e-03  1.5628e-03  2.1960e-03  2.8197e-05  9.7078e-19  6.0232e-19  0:00:42  470
    31  6.9682e-03  5.1956e-06  2.8857e-06  2.1114e-19  4.0775e-04  9.9050e-04  2.0962e-03  1.4755e-03  2.1048e-03  2.7264e-05  9.6511e-19  6.8488e-19  0:00:34  469
    32  7.2535e-03  5.1801e-06  2.7629e-06  2.0626e-19  4.0482e-04  9.8446e-04  2.0156e-03  1.3966e-03  2.0238e-03  2.6276e-05  9.3170e-19  6.2664e-19  0:00:27  468
    33  7.4103e-03  5.1651e-06  2.6503e-06  1.9435e-19  4.0213e-04  9.7885e-04  1.9393e-03  1.3231e-03  1.9472e-03  2.5269e-05  9.0733e-19  6.6118e-19  0:00:22  467

  iter  continuity  x-velocity  y-velocity  z-velocity           k     epsilon   uu-stress   vv-stress   ww-stress   uv-stress   vw-stress   uw-stress     time/iter
    34  7.4604e-03  5.1364e-06  2.5369e-06  1.9351e-19  3.9762e-04  9.6890e-04  1.8622e-03  1.2531e-03  1.8698e-03  2.4327e-05  9.1238e-19  5.3811e-19  0:01:50  466
    35  7.4729e-03  5.1234e-06  2.4702e-06  1.8630e-19  3.9508e-04  9.6367e-04  1.7931e-03  1.1897e-03  1.8005e-03  2.3269e-05  8.8146e-19  6.2945e-19  0:01:28  465
    36  7.3588e-03  5.1052e-06  2.3084e-06  1.7494e-19  3.9273e-04  9.5852e-04  1.7275e-03  1.1306e-03  1.7347e-03  2.2259e-05  8.5871e-19  5.6010e-19  0:01:10  464
    37  7.2274e-03  5.0889e-06  2.1911e-06  1.7567e-19  3.9052e-04  9.5348e-04  1.6652e-03  1.0755e-03  1.6721e-03  2.1386e-05  8.4231e-19  6.2198e-19  0:00:56  463
    38  7.1140e-03  5.0745e-06  2.1428e-06  1.6955e-19  3.8840e-04  9.4894e-04  1.6056e-03  1.0239e-03  1.6124e-03  2.0474e-05  8.2464e-19  6.2608e-19  0:00:45  462
    39  6.9401e-03  5.0567e-06  2.0192e-06  1.6724e-19  3.8638e-04  9.4429e-04  1.5490e-03  9.7567e-04  1.5556e-03  1.9696e-05  8.0914e-19  6.0252e-19  0:00:36  461
    40  6.7977e-03  5.0422e-06  1.9730e-06  1.6324e-19  3.8442e-04  9.4011e-04  1.4948e-03  9.3039e-04  1.5012e-03  1.8955e-05  7.9494e-19  5.5105e-19  0:00:29  460
    41  6.6054e-03  5.0245e-06  1.8630e-06  1.6233e-19  3.8254e-04  9.3585e-04  1.4431e-03  8.8792e-04  1.4494e-03  1.8276e-05  7.7941e-19  6.1142e-19  0:00:23  459
    42  6.4515e-03  5.0099e-06  1.8237e-06  1.5871e-19  3.8070e-04  9.3204e-04  1.3937e-03  8.4797e-04  1.3998e-03  1.7635e-05  7.6615e-19  5.5833e-19  0:00:18  458
    43  6.2594e-03  4.9923e-06  1.7263e-06  1.5816e-19  3.7894e-04  9.2814e-04  1.3466e-03  8.1042e-04  1.3525e-03  1.7055e-05  7.5112e-19  4.8549e-19  0:00:15  457
    44  6.1088e-03  4.9777e-06  1.6922e-06  1.5288e-19  3.7722e-04  9.2468e-04  1.3014e-03  7.7504e-04  1.3071e-03  1.6508e-05  7.3534e-19  4.8713e-19  0:00:12  456

  iter  continuity  x-velocity  y-velocity  z-velocity           k     epsilon   uu-stress   vv-stress   ww-stress   uv-stress   vw-stress   uw-stress     time/iter
    45  5.9268e-03  4.9604e-06  1.6048e-06  1.4862e-19  3.7555e-04  9.2113e-04  1.2583e-03  7.4172e-04  1.2638e-03  1.6014e-05  7.2205e-19  5.5183e-19  0:00:09  455
    46  5.7857e-03  4.9458e-06  1.5746e-06  1.4731e-19  3.7392e-04  9.1797e-04  1.2169e-03  7.1026e-04  1.2223e-03  1.5546e-05  7.1055e-19  5.6646e-19  0:01:38  454
    47  5.6168e-03  4.9286e-06  1.4956e-06  1.4171e-19  3.7235e-04  9.1471e-04  1.1774e-03  6.8058e-04  1.1826e-03  1.5119e-05  6.9781e-19  5.0570e-19  0:01:18  453
    48  5.4863e-03  4.9140e-06  1.4685e-06  1.4155e-19  3.7080e-04  9.1174e-04  1.1395e-03  6.5251e-04  1.1445e-03  1.4720e-05  6.7698e-19  6.5564e-19  0:01:03  452
    49  5.3521e-03  4.8984e-06  1.4257e-06  1.4568e-19  3.6929e-04  9.0897e-04  1.1031e-03  6.2597e-04  1.1079e-03  1.4335e-05  6.6416e-19  5.4876e-19  0:00:50  451
    50  5.1988e-03  4.8814e-06  1.3501e-06  1.4005e-19  3.6781e-04  9.0557e-04  1.0683e-03  6.0082e-04  1.0729e-03  1.3969e-05  6.4654e-19  4.7572e-19  0:00:40  450
    51  5.0812e-03  4.8669e-06  1.3255e-06  1.3940e-19  3.6637e-04  9.0286e-04  1.0348e-03  5.7702e-04  1.0393e-03  1.3632e-05  6.3507e-19  4.5899e-19  0:00:32  449
    52  4.9639e-03  4.8515e-06  1.2883e-06  1.3922e-19  3.6497e-04  9.0090e-04  1.0027e-03  5.5451e-04  1.0070e-03  1.3321e-05  6.1727e-19  4.3248e-19  0:00:25  448
    53  4.8269e-03  4.8349e-06  1.2225e-06  1.3362e-19  3.6361e-04  8.9856e-04  9.7193e-04  5.3318e-04  9.7608e-04  1.3036e-05  6.0922e-19  5.0482e-19  0:00:20  447
    54  4.7162e-03  4.8205e-06  1.2016e-06  1.3387e-19  3.6226e-04  8.9526e-04  9.4233e-04  5.1283e-04  9.4632e-04  1.2743e-05  5.9259e-19  4.2249e-19  0:00:16  446
    55  4.6034e-03  4.8053e-06  1.1704e-06  1.2881e-19  3.6094e-04  8.9297e-04  9.1388e-04  4.9354e-04  9.1771e-04  1.2471e-05  5.8312e-19  4.1591e-19  0:00:13  445

  iter  continuity  x-velocity  y-velocity  z-velocity           k     epsilon   uu-stress   vv-stress   ww-stress   uv-stress   vw-stress   uw-stress     time/iter
    56  4.4887e-03  4.7890e-06  1.1143e-06  1.3097e-19  3.5966e-04  8.9064e-04  8.8656e-04  4.7522e-04  8.9025e-04  1.2219e-05  5.6802e-19  4.7642e-19  0:00:10  444
    57  4.4102e-03  4.7748e-06  1.0972e-06  1.2977e-19  3.5839e-04  8.8852e-04  8.6028e-04  4.5778e-04  8.6383e-04  1.2039e-05  5.5849e-19  4.1820e-19  0:00:08  443
    58  4.3304e-03  4.7599e-06  1.0695e-06  1.2769e-19  3.5716e-04  8.8656e-04  8.3500e-04  4.4120e-04  8.3841e-04  1.1868e-05  5.4303e-19  4.5987e-19  0:01:35  442
    59  4.2500e-03  4.7450e-06  1.0385e-06  1.2619e-19  3.5595e-04  8.8470e-04  8.1068e-04  4.2541e-04  8.1395e-04  1.1698e-05  5.3358e-19  3.8880e-19  0:01:16  441
    60  4.1672e-03  4.7302e-06  1.0074e-06  1.2487e-19  3.5476e-04  8.8299e-04  7.8727e-04  4.1037e-04  7.9040e-04  1.1533e-05  5.2257e-19  3.8784e-19  0:01:01  440
    61  4.0669e-03  4.7145e-06  9.5867e-07  1.2253e-19  3.5361e-04  8.8112e-04  7.6474e-04  3.9603e-04  7.6775e-04  1.1364e-05  5.0941e-19  3.7673e-19  0:00:48  439
    62  3.9860e-03  4.7006e-06  9.4450e-07  1.2322e-19  3.5247e-04  8.7940e-04  7.4304e-04  3.8235e-04  7.4593e-04  1.1194e-05  4.9992e-19  4.8869e-19  0:00:39  438
    63  3.8982e-03  4.6861e-06  9.2223e-07  1.1957e-19  3.5135e-04  8.7769e-04  7.2214e-04  3.6929e-04  7.2490e-04  1.1024e-05  4.8830e-19  4.8905e-19  0:00:31  437
    64  3.8074e-03  4.6716e-06  8.9725e-07  1.2156e-19  3.5026e-04  8.7599e-04  7.0199e-04  3.5682e-04  7.0463e-04  1.0874e-05  4.7849e-19  3.8669e-19  0:00:25  436
    65  3.7135e-03  4.6572e-06  8.7200e-07  1.1691e-19  3.4918e-04  8.7430e-04  6.8257e-04  3.4490e-04  6.8510e-04  1.0771e-05  4.6897e-19  4.2218e-19  0:00:20  435
    66  3.6164e-03  4.6428e-06  8.4752e-07  1.1638e-19  3.4812e-04  8.7226e-04  6.6383e-04  3.3350e-04  6.6626e-04  1.0693e-05  4.5685e-19  3.9685e-19  0:00:16  434

  iter  continuity  x-velocity  y-velocity  z-velocity           k     epsilon   uu-stress   vv-stress   ww-stress   uv-stress   vw-stress   uw-stress     time/iter
    67  3.3209e-03  4.6285e-06  8.2419e-07  1.1536e-19  3.4708e-04  8.7034e-04  6.4577e-04  3.2259e-04  6.4808e-04  1.0644e-05  4.4851e-19  4.3843e-19  0:00:12  433
    68  3.0495e-03  4.6143e-06  8.0194e-07  1.0993e-19  3.4606e-04  8.6859e-04  6.2918e-04  3.1215e-04  6.3139e-04  1.0602e-05  4.4067e-19  4.3668e-19  0:00:10  432
    69  2.8503e-03  4.6002e-06  7.8078e-07  1.1231e-19  3.4506e-04  8.6690e-04  6.1237e-04  3.0216e-04  6.1448e-04  1.0566e-05  4.3164e-19  3.7296e-19  0:00:08  431
    70  2.7053e-03  4.5863e-06  7.5951e-07  1.1120e-19  3.4407e-04  8.6479e-04  5.9603e-04  2.9313e-04  5.9804e-04  1.0511e-05  4.1811e-19  2.8025e-19  0:01:32  430
    71  2.5935e-03  4.5722e-06  7.3191e-07  1.0971e-19  3.4311e-04  8.6273e-04  5.8108e-04  2.8396e-04  5.8300e-04  1.0487e-05  4.0898e-19  3.3854e-19  0:01:14  429
    72  2.5018e-03  4.5586e-06  7.1935e-07  1.0913e-19  3.4216e-04  8.6089e-04  5.6584e-04  2.7567e-04  5.6767e-04  1.0446e-05  3.9787e-19  4.0607e-19  0:00:59  428
    73  2.4189e-03  4.5450e-06  7.0739e-07  1.0709e-19  3.4123e-04  8.5917e-04  5.5189e-04  2.6723e-04  5.5364e-04  1.0434e-05  3.9168e-19  3.0196e-19  0:00:47  427
    74  2.3424e-03  4.5317e-06  6.7740e-07  1.0670e-19  3.4031e-04  8.5759e-04  5.3766e-04  2.5959e-04  5.3932e-04  1.0403e-05  3.8037e-19  3.1781e-19  0:00:37  426
    75  2.2732e-03  4.5184e-06  6.8080e-07  1.0508e-19  3.3942e-04  8.5551e-04  5.2462e-04  2.5180e-04  5.2619e-04  1.0399e-05  3.7550e-19  3.5141e-19  0:00:30  425
    76  2.2086e-03  4.4977e-06  6.4184e-07  1.0710e-19  3.3764e-04  8.5269e-04  5.1138e-04  2.4435e-04  5.1223e-04  1.0379e-05  3.7058e-19  3.3042e-19  0:00:24  424
    77  2.1481e-03  4.4843e-06  6.5145e-07  1.0494e-19  3.3674e-04  8.5138e-04  4.9861e-04  2.3709e-04  4.9998e-04  1.0376e-05  3.6439e-19  3.1774e-19  0:00:19  423

  iter  continuity  x-velocity  y-velocity  z-velocity           k     epsilon   uu-stress   vv-stress   ww-stress   uv-stress   vw-stress   uw-stress     time/iter
    78  2.0829e-03  4.4714e-06  6.1128e-07  1.0261e-19  3.3588e-04  8.4960e-04  4.8676e-04  2.3053e-04  4.8807e-04  1.0347e-05  3.5369e-19  2.7747e-19  0:00:15  422
    79  2.0095e-03  4.4512e-06  5.9256e-07  1.0088e-19  3.3418e-04  8.4695e-04  4.7473e-04  2.2397e-04  4.7600e-04  1.0308e-05  3.4883e-19  2.8179e-19  0:01:36  421
    80  1.9332e-03  4.4382e-06  6.0690e-07  1.0029e-19  3.3332e-04  8.4499e-04  4.6369e-04  2.1754e-04  4.6433e-04  1.0287e-05  3.4211e-19  3.7576e-19  0:01:17  420
    81  1.8558e-03  4.4185e-06  5.6345e-07  1.0283e-19  3.3165e-04  8.4227e-04  4.5241e-04  2.1146e-04  4.5298e-04  1.0255e-05  3.3672e-19  3.0078e-19  0:01:01  419
    82  1.7793e-03  4.4057e-06  5.4725e-07  9.9354e-20  3.3081e-04  8.4029e-04  4.4199e-04  2.0587e-04  4.4249e-04  1.0208e-05  3.2679e-19  2.8415e-19  0:00:49  418
    83  1.7077e-03  4.3863e-06  5.2862e-07  1.0004e-19  3.2919e-04  8.3755e-04  4.3140e-04  2.0026e-04  4.3186e-04  1.0170e-05  3.2161e-19  3.1218e-19  0:00:39  417
    84  1.6409e-03  4.3740e-06  5.1304e-07  9.5836e-20  3.2839e-04  8.3557e-04  4.2160e-04  1.9508e-04  4.2202e-04  1.0116e-05  3.1226e-19  3.3250e-19  0:00:31  416
    85  1.5790e-03  4.3552e-06  5.0026e-07  9.8319e-20  3.2683e-04  8.3239e-04  4.1166e-04  1.8986e-04  4.1205e-04  1.0074e-05  3.0735e-19  2.8247e-19  0:00:25  415
    86  1.5222e-03  4.3363e-06  4.8870e-07  9.5389e-20  3.2526e-04  8.2972e-04  4.0202e-04  1.8482e-04  4.0237e-04  9.9207e-06  3.0253e-19  2.7777e-19  0:00:20  414
    87  1.4706e-03  4.3244e-06  4.7933e-07  9.5265e-20  3.2450e-04  8.2782e-04  3.9311e-04  1.8017e-04  3.9342e-04  9.8421e-06  2.9418e-19  3.0027e-19  0:00:16  413
    88  1.4235e-03  4.3064e-06  4.7126e-07  9.4263e-20  3.2302e-04  8.2476e-04  3.8406e-04  1.7548e-04  3.8434e-04  9.7721e-06  2.9011e-19  3.0114e-19  0:00:13  412

  iter  continuity  x-velocity  y-velocity  z-velocity           k     epsilon   uu-stress   vv-stress   ww-stress   uv-stress   vw-stress   uw-stress     time/iter
    89  1.3853e-03  4.2883e-06  4.6273e-07  9.6433e-20  3.2153e-04  8.2167e-04  3.7526e-04  1.7095e-04  3.7552e-04  9.7031e-06  2.8563e-19  2.9714e-19  0:00:10  411
    90  1.3519e-03  4.2704e-06  4.5401e-07  9.2397e-20  3.2005e-04  8.1858e-04  3.6673e-04  1.6658e-04  3.6697e-04  9.6267e-06  2.7940e-19  3.0697e-19  0:00:08  410
    91  1.3232e-03  4.2526e-06  4.4532e-07  9.2884e-20  3.1859e-04  8.1595e-04  3.5846e-04  1.6235e-04  3.5867e-04  9.5469e-06  2.7430e-19  2.3837e-19  0:00:06  409
    92  1.2985e-03  4.2415e-06  4.3743e-07  9.0264e-20  3.1792e-04  8.1407e-04  3.5080e-04  1.5845e-04  3.5098e-04  9.4588e-06  2.6610e-19  2.0705e-19  0:00:05  408
    93  1.2773e-03  4.2248e-06  4.2584e-07  9.0475e-20  3.1656e-04  8.1116e-04  3.4302e-04  1.5450e-04  3.4319e-04  9.3804e-06  2.6168e-19  2.7310e-19  0:01:25  407
    94  1.2548e-03  4.2080e-06  4.1647e-07  8.9378e-20  3.1521e-04  8.0822e-04  3.3547e-04  1.5068e-04  3.3561e-04  9.3051e-06  2.5690e-19  2.9440e-19  0:01:08  406
    95  1.2326e-03  4.1914e-06  4.0824e-07  9.1290e-20  3.1387e-04  8.0529e-04  3.2813e-04  1.4699e-04  3.2826e-04  9.2242e-06  2.5241e-19  2.5512e-19  0:00:54  405
    96  1.2134e-03  4.1750e-06  4.0054e-07  8.9414e-20  3.1256e-04  8.0238e-04  3.2100e-04  1.4342e-04  3.2112e-04  9.1416e-06  2.4805e-19  2.5386e-19  0:00:43  404
    97  1.2036e-03  4.1588e-06  3.9312e-07  8.8139e-20  3.1126e-04  7.9950e-04  3.1408e-04  1.3996e-04  3.1418e-04  9.0589e-06  2.4367e-19  2.8781e-19  0:00:35  403
    98  1.2031e-03  4.1429e-06  3.8585e-07  8.8454e-20  3.0999e-04  7.9666e-04  3.0736e-04  1.3661e-04  3.0745e-04  8.9758e-06  2.3922e-19  2.5833e-19  0:00:28  402
    99  1.2004e-03  4.1272e-06  3.7873e-07  8.7995e-20  3.0875e-04  7.9383e-04  3.0083e-04  1.3337e-04  3.0091e-04  8.8893e-06  2.3474e-19  2.6320e-19  0:00:22  401

  iter  continuity  x-velocity  y-velocity  z-velocity           k     epsilon   uu-stress   vv-stress   ww-stress   uv-stress   vw-stress   uw-stress     time/iter
   100  1.1970e-03  4.1119e-06  3.7805e-07  8.5764e-20  3.0753e-04  7.9110e-04  2.9449e-04  1.3024e-04  2.9455e-04  8.8077e-06  2.3051e-19  2.5653e-19  0:00:18  400
   101  1.1875e-03  4.0967e-06  3.6771e-07  8.5493e-20  3.0634e-04  7.8837e-04  2.8833e-04  1.2720e-04  2.8838e-04  8.7224e-06  2.2613e-19  2.6268e-19  0:00:14  399
   102  1.1773e-03  4.0818e-06  3.6509e-07  8.4716e-20  3.0517e-04  7.8573e-04  2.8235e-04  1.2426e-04  2.8238e-04  8.6419e-06  2.2177e-19  2.6472e-19  0:00:11  398
   103  9.5891e-04  4.0670e-06  3.5431e-07  8.3929e-20  3.0403e-04  7.8330e-04  2.7653e-04  1.2141e-04  2.7656e-04  8.5618e-06  2.1754e-19  2.4975e-19  0:00:09  397
   104  9.3593e-04  4.0525e-06  3.4574e-07  8.3202e-20  3.0292e-04  7.8105e-04  2.7088e-04  1.1865e-04  2.7089e-04  8.4825e-06  2.1332e-19  2.6039e-19  0:00:07  396
   105  9.1711e-04  4.0383e-06  3.4281e-07  8.3117e-20  3.0183e-04  7.7886e-04  2.6538e-04  1.1598e-04  2.6538e-04  8.4037e-06  2.0988e-19  2.3165e-19  0:00:06  395
   106  8.9728e-04  4.0244e-06  3.4230e-07  8.3610e-20  3.0077e-04  7.7669e-04  2.6004e-04  1.1339e-04  2.6003e-04  8.3255e-06  2.0605e-19  1.9941e-19  0:00:05  394
   107  8.7467e-04  4.0106e-06  3.3967e-07  8.2131e-20  2.9973e-04  7.7454e-04  2.5484e-04  1.1088e-04  2.5482e-04  8.2476e-06  2.0237e-19  2.1005e-19  0:00:04  393
   108  8.4927e-04  3.9971e-06  3.3565e-07  8.2471e-20  2.9872e-04  7.7238e-04  2.4979e-04  1.0843e-04  2.4976e-04  8.1712e-06  1.9849e-19  2.2719e-19  0:01:21  392
   109  8.2989e-04  3.9839e-06  3.3081e-07  8.1704e-20  2.9772e-04  7.7025e-04  2.4489e-04  1.0603e-04  2.4484e-04  8.0993e-06  1.9489e-19  2.5644e-19  0:01:05  391
   110  8.1132e-04  3.9708e-06  3.2578e-07  8.0555e-20  2.9675e-04  7.6817e-04  2.4012e-04  1.0371e-04  2.4006e-04  8.0208e-06  1.9149e-19  2.3130e-19  0:00:52  390

  iter  continuity  x-velocity  y-velocity  z-velocity           k     epsilon   uu-stress   vv-stress   ww-stress   uv-stress   vw-stress   uw-stress     time/iter
   111  7.8462e-04  3.9579e-06  3.2032e-07  7.8944e-20  2.9580e-04  7.6605e-04  2.3547e-04  1.0145e-04  2.3540e-04  7.9397e-06  1.8769e-19  2.0237e-19  0:00:41  389
   112  7.5179e-04  3.9452e-06  3.1452e-07  7.9413e-20  2.9487e-04  7.6392e-04  2.3094e-04  9.9272e-05  2.3085e-04  7.8602e-06  1.8452e-19  2.4176e-19  0:00:33  388
   113  7.1120e-04  3.9324e-06  3.0522e-07  7.5816e-20  2.9396e-04  7.6167e-04  2.2652e-04  9.7156e-05  2.2643e-04  7.7802e-06  1.8127e-19  2.2683e-19  0:00:26  387
   114  6.7194e-04  3.9201e-06  2.9930e-07  7.7406e-20  2.9306e-04  7.5940e-04  2.2221e-04  9.5101e-05  2.2211e-04  7.7013e-06  1.7774e-19  2.0387e-19  0:00:21  386
   115  6.3420e-04  3.9080e-06  2.9459e-07  7.6497e-20  2.9219e-04  7.5713e-04  2.1802e-04  9.3106e-05  2.1791e-04  7.6239e-06  1.7425e-19  1.8159e-19  0:00:17  385
   116  5.9891e-04  3.8962e-06  2.9016e-07  7.7795e-20  2.9133e-04  7.5489e-04  2.1393e-04  9.1167e-05  2.1381e-04  7.5479e-06  1.7152e-19  1.7754e-19  0:00:13  384
   117  5.6650e-04  3.8846e-06  2.8571e-07  7.5567e-20  2.9049e-04  7.5268e-04  2.0995e-04  8.9284e-05  2.0982e-04  7.4736e-06  1.6859e-19  2.1258e-19  0:00:11  383
   118  5.3703e-04  3.8732e-06  2.8115e-07  7.4165e-20  2.8967e-04  7.5051e-04  2.0607e-04  8.7454e-05  2.0593e-04  7.4008e-06  1.6547e-19  1.8330e-19  0:00:09  382
   119  5.1039e-04  3.8620e-06  2.7654e-07  7.6860e-20  2.8887e-04  7.4839e-04  2.0228e-04  8.5675e-05  2.0214e-04  7.3295e-06  1.6247e-19  2.0383e-19  0:00:07  381
   120  4.8636e-04  3.8511e-06  2.7194e-07  7.3261e-20  2.8809e-04  7.4634e-04  1.9859e-04  8.3946e-05  1.9844e-04  7.2596e-06  1.5982e-19  2.0636e-19  0:00:05  380
   121  4.6466e-04  3.8403e-06  2.6741e-07  7.3622e-20  2.8732e-04  7.4434e-04  1.9500e-04  8.2264e-05  1.9483e-04  7.1912e-06  1.5689e-19  1.9583e-19  0:00:04  379

  iter  continuity  x-velocity  y-velocity  z-velocity           k     epsilon   uu-stress   vv-stress   ww-stress   uv-stress   vw-stress   uw-stress     time/iter
   122  4.4922e-04  3.8298e-06  2.6297e-07  7.3117e-20  2.8657e-04  7.4246e-04  1.9149e-04  8.0628e-05  1.9131e-04  7.1252e-06  1.5447e-19  1.8237e-19  0:01:19  378
   123  4.3460e-04  3.8191e-06  2.5761e-07  7.5060e-20  2.8585e-04  7.4053e-04  1.8807e-04  7.9036e-05  1.8787e-04  7.0588e-06  1.5194e-19  2.1421e-19  0:01:03  377
   124  4.2882e-04  3.8093e-06  2.5496e-07  7.2007e-20  2.8513e-04  7.3878e-04  1.8474e-04  7.7486e-05  1.8453e-04  6.9951e-06  1.4947e-19  2.0747e-19  0:00:50  376
   125  4.1748e-04  3.7990e-06  2.5027e-07  7.2679e-20  2.8444e-04  7.3700e-04  1.8149e-04  7.5978e-05  1.8126e-04  6.9309e-06  1.4723e-19  1.8524e-19  0:00:40  375
   126  4.1260e-04  3.7895e-06  2.4774e-07  7.1829e-20  2.8376e-04  7.3539e-04  1.7831e-04  7.4510e-05  1.7807e-04  6.8693e-06  1.4481e-19  1.7972e-19  0:00:32  374
   127  4.0213e-04  3.7796e-06  2.4306e-07  7.0969e-20  2.8309e-04  7.3378e-04  1.7521e-04  7.3080e-05  1.7495e-04  6.8082e-06  1.4247e-19  1.8779e-19  0:00:26  373
   128  3.9386e-04  3.7702e-06  2.3952e-07  7.0179e-20  2.8244e-04  7.3224e-04  1.7219e-04  7.1687e-05  1.7191e-04  6.7479e-06  1.4016e-19  1.6130e-19  0:00:20  372
   129  3.8616e-04  3.7609e-06  2.3631e-07  6.9542e-20  2.8181e-04  7.3076e-04  1.6924e-04  7.0331e-05  1.6895e-04  6.6885e-06  1.3819e-19  1.8289e-19  0:00:16  371
   130  3.7890e-04  3.7518e-06  2.3315e-07  6.9388e-20  2.8119e-04  7.2934e-04  1.6636e-04  6.9009e-05  1.6605e-04  6.6299e-06  1.3574e-19  1.9435e-19  0:00:13  370
   131  3.7196e-04  3.7429e-06  2.2997e-07  6.8572e-20  2.8059e-04  7.2798e-04  1.6354e-04  6.7721e-05  1.6322e-04  6.5721e-06  1.3345e-19  1.5712e-19  0:00:10  369
   132  3.6527e-04  3.7341e-06  2.2675e-07  6.9400e-20  2.8000e-04  7.2668e-04  1.6079e-04  6.6466e-05  1.6045e-04  6.5151e-06  1.3165e-19  1.8948e-19  0:01:22  368

  iter  continuity  x-velocity  y-velocity  z-velocity           k     epsilon   uu-stress   vv-stress   ww-stress   uv-stress   vw-stress   uw-stress     time/iter
   133  3.5876e-04  3.7254e-06  2.2351e-07  6.7491e-20  2.7942e-04  7.2543e-04  1.5811e-04  6.5242e-05  1.5775e-04  6.4587e-06  1.2950e-19  1.5108e-19  0:01:05  367
   134  3.5241e-04  3.7169e-06  2.2029e-07  6.7399e-20  2.7886e-04  7.2423e-04  1.5548e-04  6.4048e-05  1.5511e-04  6.4031e-06  1.2765e-19  1.5291e-19  0:00:52  366
   135  3.4618e-04  3.7085e-06  2.1709e-07  6.6633e-20  2.7831e-04  7.2308e-04  1.5292e-04  6.2885e-05  1.5252e-04  6.3481e-06  1.2574e-19  1.5085e-19  0:00:42  365
   136  3.4008e-04  3.7003e-06  2.1395e-07  6.7712e-20  2.7777e-04  7.2197e-04  1.5042e-04  6.1736e-05  1.5001e-04  6.2961e-06  1.2387e-19  1.7821e-19  0:00:33  364
   137  3.3408e-04  3.6922e-06  2.1092e-07  6.6089e-20  2.7724e-04  7.2093e-04  1.4798e-04  6.0613e-05  1.4755e-04  6.2431e-06  1.2187e-19  1.5133e-19  0:00:26  363
   138  3.2697e-04  3.6841e-06  2.0798e-07  6.5895e-20  2.7673e-04  7.1993e-04  1.4559e-04  5.9520e-05  1.4514e-04  6.1883e-06  1.2008e-19  1.5367e-19  0:00:21  362
   139  3.1847e-04  3.6762e-06  2.0506e-07  6.6039e-20  2.7623e-04  7.1893e-04  1.4325e-04  5.8455e-05  1.4278e-04  6.1326e-06  1.1817e-19  1.5790e-19  0:00:17  361
   140  3.0916e-04  3.6684e-06  2.0216e-07  6.4893e-20  2.7574e-04  7.1792e-04  1.4096e-04  5.7418e-05  1.4048e-04  6.0769e-06  1.1630e-19  1.6224e-19  0:00:13  360
   141  2.9968e-04  3.6608e-06  1.9929e-07  6.5634e-20  2.7525e-04  7.1690e-04  1.3872e-04  5.6406e-05  1.3822e-04  6.0214e-06  1.1479e-19  1.6317e-19  0:00:11  359
   142  2.9048e-04  3.6532e-06  1.9645e-07  6.4124e-20  2.7478e-04  7.1587e-04  1.3653e-04  5.5419e-05  1.3601e-04  5.9666e-06  1.1314e-19  1.6437e-19  0:00:09  358
   143  2.8182e-04  3.6457e-06  1.9366e-07  6.2947e-20  2.7431e-04  7.1485e-04  1.3438e-04  5.4455e-05  1.3385e-04  5.9124e-06  1.1138e-19  1.3693e-19  0:00:07  357

  iter  continuity  x-velocity  y-velocity  z-velocity           k     epsilon   uu-stress   vv-stress   ww-stress   uv-stress   vw-stress   uw-stress     time/iter
   144  2.7380e-04  3.6384e-06  1.9094e-07  6.4384e-20  2.7385e-04  7.1384e-04  1.3228e-04  5.3515e-05  1.3173e-04  5.8589e-06  1.0983e-19  1.5028e-19  0:00:05  356
   145  2.6642e-04  3.6311e-06  1.8828e-07  6.3809e-20  2.7340e-04  7.1285e-04  1.3022e-04  5.2597e-05  1.2966e-04  5.8062e-06  1.0814e-19  1.5967e-19  0:00:04  355
   146  2.5963e-04  3.6240e-06  1.8570e-07  6.2696e-20  2.7296e-04  7.1187e-04  1.2821e-04  5.1700e-05  1.2763e-04  5.7543e-06  1.0662e-19  1.5787e-19  0:01:14  354
   147  2.5341e-04  3.6169e-06  1.8317e-07  6.2814e-20  2.7253e-04  7.1092e-04  1.2623e-04  5.0824e-05  1.2564e-04  5.7031e-06  1.0504e-19  1.4762e-19  0:00:59  353
   148  2.4893e-04  3.6100e-06  1.8071e-07  6.2396e-20  2.7211e-04  7.1000e-04  1.2430e-04  4.9969e-05  1.2370e-04  5.6527e-06  1.0355e-19  1.3409e-19  0:00:47  352
   149  2.4563e-04  3.6031e-06  1.7830e-07  6.2151e-20  2.7170e-04  7.0910e-04  1.2241e-04  4.9133e-05  1.2179e-04  5.6029e-06  1.0224e-19  1.4204e-19  0:00:38  351
   150  2.4412e-04  3.5964e-06  1.7595e-07  6.1632e-20  2.7129e-04  7.0824e-04  1.2055e-04  4.8315e-05  1.1992e-04  5.5538e-06  1.0087e-19  1.5553e-19  0:00:30  350
   151  2.4250e-04  3.5897e-06  1.7365e-07  6.1920e-20  2.7090e-04  7.0740e-04  1.1874e-04  4.7517e-05  1.1809e-04  5.5053e-06  9.9658e-20  1.5848e-19  0:00:24  349
   152  2.4069e-04  3.5831e-06  1.7140e-07  6.0664e-20  2.7051e-04  7.0660e-04  1.1696e-04  4.6736e-05  1.1630e-04  5.4575e-06  9.8150e-20  1.6974e-19  0:00:19  348
   153  2.3873e-04  3.5767e-06  1.6920e-07  6.0490e-20  2.7013e-04  7.0582e-04  1.1521e-04  4.5972e-05  1.1454e-04  5.4102e-06  9.6795e-20  1.5439e-19  0:00:15  347
   154  2.3663e-04  3.5703e-06  1.6704e-07  6.0634e-20  2.6976e-04  7.0508e-04  1.1351e-04  4.5225e-05  1.1282e-04  5.3635e-06  9.5417e-20  1.2208e-19  0:00:12  346

  iter  continuity  x-velocity  y-velocity  z-velocity           k     epsilon   uu-stress   vv-stress   ww-stress   uv-stress   vw-stress   uw-stress     time/iter
   155  2.3443e-04  3.5640e-06  1.6492e-07  6.1239e-20  2.6940e-04  7.0436e-04  1.1183e-04  4.4495e-05  1.1113e-04  5.3174e-06  9.4214e-20  1.3669e-19  0:00:10  345
   156  2.3214e-04  3.5577e-06  1.6285e-07  5.9532e-20  2.6904e-04  7.0368e-04  1.1019e-04  4.3780e-05  1.0948e-04  5.2719e-06  9.3074e-20  1.3840e-19  0:00:08  344
   157  2.2979e-04  3.5516e-06  1.6081e-07  5.9342e-20  2.6869e-04  7.0302e-04  1.0859e-04  4.3070e-05  1.0787e-04  5.2288e-06  9.1883e-20  1.2969e-19  0:00:06  343
   158  2.2737e-04  3.5455e-06  1.5883e-07  5.9102e-20  2.6835e-04  7.0240e-04  1.0702e-04  4.2377e-05  1.0628e-04  5.1845e-06  9.0606e-20  1.3269e-19  0:00:05  342
   159  2.2359e-04  3.5395e-06  1.5690e-07  5.8577e-20  2.6802e-04  7.0181e-04  1.0548e-04  4.1699e-05  1.0473e-04  5.1393e-06  8.9378e-20  1.2050e-19  0:00:04  341
   160  2.1871e-04  3.5336e-06  1.5507e-07  5.7714e-20  2.6770e-04  7.0121e-04  1.0397e-04  4.1038e-05  1.0320e-04  5.0937e-06  8.7999e-20  1.3308e-19  0:01:11  340
   161  2.1340e-04  3.5277e-06  1.5329e-07  5.7838e-20  2.6738e-04  7.0061e-04  1.0249e-04  4.0391e-05  1.0171e-04  5.0482e-06  8.6800e-20  1.4367e-19  0:00:57  339
   162  2.0823e-04  3.5219e-06  1.5155e-07  5.7579e-20  2.6706e-04  6.9999e-04  1.0103e-04  3.9758e-05  1.0024e-04  5.0029e-06  8.5771e-20  1.2800e-19  0:00:45  338
   163  2.0352e-04  3.5162e-06  1.4983e-07  5.6934e-20  2.6675e-04  6.9937e-04  9.9600e-05  3.9139e-05  9.8801e-05  4.9580e-06  8.4695e-20  1.2773e-19  0:00:36  337
   164  1.9941e-04  3.5106e-06  1.4814e-07  5.7195e-20  2.6644e-04  6.9873e-04  9.8198e-05  3.8534e-05  9.7387e-05  4.9136e-06  8.3578e-20  1.4734e-19  0:00:29  336
   165  1.9622e-04  3.5050e-06  1.4648e-07  5.7118e-20  2.6614e-04  6.9810e-04  9.6821e-05  3.7941e-05  9.6000e-05  4.8696e-06  8.2641e-20  1.4142e-19  0:00:23  335

  iter  continuity  x-velocity  y-velocity  z-velocity           k     epsilon   uu-stress   vv-stress   ww-stress   uv-stress   vw-stress   uw-stress     time/iter
   166  1.9369e-04  3.4995e-06  1.4485e-07  5.7039e-20  2.6585e-04  6.9746e-04  9.5469e-05  3.7361e-05  9.4638e-05  4.8262e-06  8.1538e-20  1.4069e-19  0:00:18  334
   167  1.9148e-04  3.4940e-06  1.4323e-07  5.6568e-20  2.6556e-04  6.9684e-04  9.4142e-05  3.6793e-05  9.3302e-05  4.7834e-06  8.0509e-20  1.3494e-19  0:00:15  333
   168  1.8943e-04  3.4886e-06  1.4165e-07  5.6091e-20  2.6528e-04  6.9622e-04  9.2840e-05  3.6236e-05  9.1990e-05  4.7411e-06  7.9628e-20  1.3688e-19  0:00:12  332
   169  1.8787e-04  3.4833e-06  1.4009e-07  5.5362e-20  2.6500e-04  6.9561e-04  9.1562e-05  3.5691e-05  9.0703e-05  4.6994e-06  7.8725e-20  1.2427e-19  0:00:09  331
   170  1.8630e-04  3.4780e-06  1.3856e-07  5.5563e-20  2.6472e-04  6.9501e-04  9.0307e-05  3.5157e-05  8.9439e-05  4.6582e-06  7.7697e-20  1.1854e-19  0:00:07  330
   171  1.8467e-04  3.4728e-06  1.3705e-07  5.5615e-20  2.6445e-04  6.9442e-04  8.9074e-05  3.4634e-05  8.8198e-05  4.6175e-06  7.6764e-20  1.0813e-19  0:00:06  329
   172  1.8305e-04  3.4677e-06  1.3557e-07  5.5717e-20  2.6419e-04  6.9385e-04  8.7865e-05  3.4121e-05  8.6979e-05  4.5775e-06  7.5833e-20  1.1273e-19  0:00:05  328
   173  1.8155e-04  3.4626e-06  1.3411e-07  5.6418e-20  2.6393e-04  6.9330e-04  8.6682e-05  3.3610e-05  8.5787e-05  4.5392e-06  7.4810e-20  1.0702e-19  0:01:09  327
   174  1.7995e-04  3.4576e-06  1.3269e-07  5.5364e-20  2.6368e-04  6.9278e-04  8.5519e-05  3.3111e-05  8.4616e-05  4.5002e-06  7.3919e-20  1.0602e-19  0:00:55  326
   175  1.7773e-04  3.4526e-06  1.3129e-07  5.6218e-20  2.6343e-04  6.9227e-04  8.4377e-05  3.2622e-05  8.3465e-05  4.4608e-06  7.3019e-20  1.1175e-19  0:00:44  325
   176  1.7516e-04  3.4477e-06  1.2991e-07  5.5201e-20  2.6319e-04  6.9176e-04  8.3255e-05  3.2144e-05  8.2335e-05  4.4213e-06  7.1948e-20  1.0058e-19  0:00:35  324

  iter  continuity  x-velocity  y-velocity  z-velocity           k     epsilon   uu-stress   vv-stress   ww-stress   uv-stress   vw-stress   uw-stress     time/iter
   177  1.7318e-04  3.4429e-06  1.2855e-07  5.4785e-20  2.6295e-04  6.9124e-04  8.2152e-05  3.1675e-05  8.1224e-05  4.3819e-06  7.1150e-20  1.2156e-19  0:00:28  323
   178  1.7137e-04  3.4380e-06  1.2722e-07  5.5746e-20  2.6271e-04  6.9072e-04  8.1068e-05  3.1216e-05  8.0132e-05  4.3426e-06  7.0305e-20  1.1952e-19  0:00:22  322
   179  1.6976e-04  3.4333e-06  1.2591e-07  5.4812e-20  2.6248e-04  6.9019e-04  8.0002e-05  3.0767e-05  7.9059e-05  4.3037e-06  6.9498e-20  1.2840e-19  0:00:18  321
   180  1.6834e-04  3.4286e-06  1.2462e-07  5.4952e-20  2.6225e-04  6.8965e-04  7.8954e-05  3.0326e-05  7.8004e-05  4.2652e-06  6.8595e-20  1.0411e-19  0:00:14  320
   181  1.6706e-04  3.4240e-06  1.2336e-07  5.5247e-20  2.6202e-04  6.8910e-04  7.7924e-05  2.9894e-05  7.6968e-05  4.2272e-06  6.7745e-20  1.1838e-19  0:00:11  319
   182  1.6586e-04  3.4194e-06  1.2211e-07  5.3876e-20  2.6180e-04  6.8856e-04  7.6912e-05  2.9471e-05  7.5949e-05  4.1895e-06  6.6769e-20  1.1679e-19  0:00:09  318
   183  1.6470e-04  3.4148e-06  1.2089e-07  5.5056e-20  2.6158e-04  6.8801e-04  7.5917e-05  2.9055e-05  7.4948e-05  4.1524e-06  6.6061e-20  1.1594e-19  0:00:07  317
   184  1.6371e-04  3.4103e-06  1.1968e-07  5.6140e-20  2.6137e-04  6.8747e-04  7.4938e-05  2.8648e-05  7.3964e-05  4.1157e-06  6.5205e-20  1.1768e-19  0:00:06  316
   185  1.6278e-04  3.4059e-06  1.1849e-07  5.4645e-20  2.6116e-04  6.8693e-04  7.3978e-05  2.8245e-05  7.2998e-05  4.0800e-06  6.4452e-20  1.0871e-19  0:00:05  315
   186  1.6176e-04  3.4015e-06  1.1732e-07  5.4407e-20  2.6095e-04  6.8640e-04  7.3035e-05  2.7847e-05  7.2050e-05  4.0450e-06  6.3680e-20  1.0547e-19  0:01:06  314
   187  1.6048e-04  3.3971e-06  1.1617e-07  5.4060e-20  2.6074e-04  6.8588e-04  7.2109e-05  2.7457e-05  7.1117e-05  4.0097e-06  6.2918e-20  1.0184e-19  0:00:53  313

  iter  continuity  x-velocity  y-velocity  z-velocity           k     epsilon   uu-stress   vv-stress   ww-stress   uv-stress   vw-stress   uw-stress     time/iter
   188  1.5906e-04  3.3928e-06  1.1503e-07  5.3654e-20  2.6054e-04  6.8537e-04  7.1197e-05  2.7075e-05  7.0200e-05  3.9743e-06  6.2233e-20  9.1959e-20  0:00:42  312
   189  1.5743e-04  3.3886e-06  1.1391e-07  5.3029e-20  2.6035e-04  6.8486e-04  7.0300e-05  2.6700e-05  6.9298e-05  3.9389e-06  6.1428e-20  9.3411e-20  0:00:34  311
   190  1.5577e-04  3.3843e-06  1.1281e-07  5.4447e-20  2.6015e-04  6.8434e-04  6.9418e-05  2.6333e-05  6.8411e-05  3.9037e-06  6.0749e-20  9.3426e-20  0:00:27  310
   191  1.5419e-04  3.3802e-06  1.1172e-07  5.3708e-20  2.5996e-04  6.8382e-04  6.8550e-05  2.5973e-05  6.7538e-05  3.8688e-06  6.0069e-20  1.1741e-19  0:00:21  309
   192  1.5273e-04  3.3761e-06  1.1066e-07  5.4104e-20  2.5977e-04  6.8329e-04  6.7696e-05  2.5620e-05  6.6680e-05  3.8341e-06  5.9421e-20  9.3597e-20  0:00:17  308
   193  1.5140e-04  3.3720e-06  1.0961e-07  5.2972e-20  2.5958e-04  6.8275e-04  6.6855e-05  2.5273e-05  6.5835e-05  3.7998e-06  5.8665e-20  9.4156e-20  0:00:14  307
   194  1.5018e-04  3.3679e-06  1.0858e-07  5.1663e-20  2.5939e-04  6.8216e-04  6.6024e-05  2.4932e-05  6.5003e-05  3.7794e-06  5.7971e-20  1.0633e-19  0:00:11  306
   195  1.4902e-04  3.3639e-06  1.0756e-07  5.2769e-20  2.5919e-04  6.8157e-04  6.5207e-05  2.4598e-05  6.4184e-05  3.7539e-06  5.7303e-20  1.1118e-19  0:00:09  305
   196  1.4790e-04  3.3600e-06  1.0656e-07  5.2110e-20  2.5901e-04  6.8103e-04  6.4409e-05  2.4265e-05  6.3382e-05  3.7123e-06  5.6546e-20  9.8046e-20  0:00:07  304
   197  1.4677e-04  3.3561e-06  1.0557e-07  5.1610e-20  2.5884e-04  6.8050e-04  6.3623e-05  2.3939e-05  6.2593e-05  3.6801e-06  5.5967e-20  8.7022e-20  0:00:06  303
   198  1.4516e-04  3.3522e-06  1.0460e-07  5.0659e-20  2.5866e-04  6.7996e-04  6.2850e-05  2.3618e-05  6.1816e-05  3.6477e-06  5.5319e-20  8.2169e-20  0:00:04  302

  iter  continuity  x-velocity  y-velocity  z-velocity           k     epsilon   uu-stress   vv-stress   ww-stress   uv-stress   vw-stress   uw-stress     time/iter
   199  1.4334e-04  3.3484e-06  1.0364e-07  5.0988e-20  2.5848e-04  6.7938e-04  6.2086e-05  2.3304e-05  6.1050e-05  3.6279e-06  5.4667e-20  8.6488e-20  0:01:04  301
   200  1.4158e-04  3.3446e-06  1.0269e-07  5.0529e-20  2.5831e-04  6.7884e-04  6.1336e-05  2.2996e-05  6.0298e-05  3.5886e-06  5.4056e-20  9.1508e-20  0:00:51  300
   201  1.4026e-04  3.3409e-06  1.0176e-07  5.0575e-20  2.5813e-04  6.7824e-04  6.0595e-05  2.2693e-05  5.9555e-05  3.5695e-06  5.3419e-20  8.9712e-20  0:00:40  299
   202  1.3900e-04  3.3371e-06  1.0084e-07  5.1131e-20  2.5796e-04  6.7769e-04  5.9868e-05  2.2397e-05  5.8826e-05  3.5304e-06  5.2794e-20  8.1143e-20  0:00:32  298
   203  1.3782e-04  3.3335e-06  9.9934e-08  5.0835e-20  2.5780e-04  6.7713e-04  5.9153e-05  2.2105e-05  5.8108e-05  3.4992e-06  5.2928e-20  8.1298e-20  0:00:26  297
   204  1.3671e-04  3.3298e-06  9.9044e-08  5.0993e-20  2.5763e-04  6.7651e-04  5.8445e-05  2.1818e-05  5.7400e-05  3.4800e-06  5.2247e-20  9.2631e-20  0:00:21  296
   205  1.3564e-04  3.3263e-06  9.8168e-08  5.0633e-20  2.5747e-04  6.7594e-04  5.7754e-05  2.1533e-05  5.6706e-05  3.4431e-06  5.2252e-20  8.0308e-20  0:00:16  295
   206  1.3461e-04  3.3227e-06  9.7305e-08  5.0847e-20  2.5730e-04  6.7532e-04  5.7070e-05  2.1253e-05  5.6022e-05  3.4251e-06  5.2165e-20  7.8371e-20  0:00:13  294
   207  1.3328e-04  3.3192e-06  9.6452e-08  4.9784e-20  2.5714e-04  6.7474e-04  5.6399e-05  2.0978e-05  5.5349e-05  3.3879e-06  5.1284e-20  7.9300e-20  0:00:10  293
   208  1.3169e-04  3.3157e-06  9.5608e-08  5.0401e-20  2.5697e-04  6.7412e-04  5.5735e-05  2.0708e-05  5.4685e-05  3.3697e-06  5.1206e-20  8.4842e-20  0:00:08  292
   209  1.3037e-04  3.3123e-06  9.4777e-08  4.9793e-20  2.5682e-04  6.7353e-04  5.5084e-05  2.0444e-05  5.4032e-05  3.3329e-06  5.1014e-20  8.8899e-20  0:00:07  291

  iter  continuity  x-velocity  y-velocity  z-velocity           k     epsilon   uu-stress   vv-stress   ww-stress   uv-stress   vw-stress   uw-stress     time/iter
   210  1.2923e-04  3.3088e-06  9.3957e-08  4.9414e-20  2.5666e-04  6.7290e-04  5.4440e-05  2.0183e-05  5.3388e-05  3.3147e-06  5.0765e-20  9.7247e-20  0:01:03  290
   211  1.2839e-04  3.3055e-06  9.3151e-08  5.0329e-20  2.5651e-04  6.7230e-04  5.3808e-05  1.9928e-05  5.2755e-05  3.2784e-06  5.0489e-20  7.7858e-20  0:00:50  289
   212  1.2762e-04  3.3021e-06  9.2357e-08  5.0242e-20  2.5635e-04  6.7164e-04  5.3183e-05  1.9676e-05  5.2130e-05  3.2606e-06  5.0210e-20  8.8987e-20  0:00:40  288
   213  1.2694e-04  3.2988e-06  9.1575e-08  4.7893e-20  2.5620e-04  6.7103e-04  5.2572e-05  1.9426e-05  5.1518e-05  3.2255e-06  4.9764e-20  9.2325e-20  0:00:32  287
   214  1.2641e-04  3.2956e-06  9.0803e-08  4.8928e-20  2.5604e-04  6.7037e-04  5.1966e-05  1.9180e-05  5.0913e-05  3.2080e-06  4.9393e-20  8.6292e-20  0:00:26  286
   215  1.2561e-04  3.2923e-06  9.0040e-08  4.9491e-20  2.5590e-04  6.6974e-04  5.1372e-05  1.8939e-05  5.0318e-05  3.1730e-06  4.8982e-20  7.4706e-20  0:00:20  285
   216  1.2464e-04  3.2891e-06  8.9286e-08  4.8732e-20  2.5574e-04  6.6907e-04  5.0784e-05  1.8703e-05  4.9731e-05  3.1555e-06  4.8638e-20  8.0799e-20  0:00:16  284
   217  1.2362e-04  3.2859e-06  8.8543e-08  4.8328e-20  2.5560e-04  6.6843e-04  5.0208e-05  1.8470e-05  4.9153e-05  3.1208e-06  4.8269e-20  7.7725e-20  0:00:13  283
   218  1.2286e-04  3.2828e-06  8.7810e-08  4.8527e-20  2.5545e-04  6.6775e-04  4.9636e-05  1.8242e-05  4.8583e-05  3.1033e-06  4.7895e-20  8.5314e-20  0:00:10  282
   219  1.2219e-04  3.2797e-06  8.7088e-08  4.7873e-20  2.5530e-04  6.6709e-04  4.9076e-05  1.8017e-05  4.8022e-05  3.0692e-06  4.7483e-20  7.8598e-20  0:00:08  281
   220  1.2173e-04  3.2766e-06  8.6376e-08  4.8253e-20  2.5515e-04  6.6639e-04  4.8523e-05  1.7793e-05  4.7470e-05  3.0524e-06  4.7077e-20  8.1865e-20  0:00:07  280

  iter  continuity  x-velocity  y-velocity  z-velocity           k     epsilon   uu-stress   vv-stress   ww-stress   uv-stress   vw-stress   uw-stress     time/iter
   221  1.2121e-04  3.2736e-06  8.5674e-08  4.7958e-20  2.5500e-04  6.6569e-04  4.7977e-05  1.7573e-05  4.6925e-05  3.0306e-06  4.6648e-20  8.5727e-20  0:00:05  279
   222  1.2050e-04  3.2706e-06  8.4981e-08  4.8031e-20  2.5487e-04  6.6502e-04  4.7442e-05  1.7357e-05  4.6390e-05  2.9963e-06  4.6266e-20  7.8173e-20  0:01:00  278
   223  1.1966e-04  3.2676e-06  8.4295e-08  4.7235e-20  2.5472e-04  6.6430e-04  4.6911e-05  1.7145e-05  4.5860e-05  2.9791e-06  4.5872e-20  8.0148e-20  0:00:48  277
   224  1.1878e-04  3.2647e-06  8.3619e-08  4.7862e-20  2.5458e-04  6.6362e-04  4.6391e-05  1.6937e-05  4.5340e-05  2.9462e-06  4.5469e-20  8.0198e-20  0:00:38  276
   225  1.1793e-04  3.2618e-06  8.2951e-08  4.6932e-20  2.5444e-04  6.6288e-04  4.5875e-05  1.6732e-05  4.4826e-05  2.9292e-06  4.5092e-20  7.8181e-20  0:00:30  275
   226  1.1723e-04  3.2589e-06  8.2293e-08  4.6620e-20  2.5429e-04  6.6214e-04  4.5368e-05  1.6528e-05  4.4320e-05  2.9082e-06  4.4664e-20  7.2163e-20  0:00:24  274
   227  1.1662e-04  3.2560e-06  8.1645e-08  4.7502e-20  2.5416e-04  6.6144e-04  4.4870e-05  1.6328e-05  4.3823e-05  2.8753e-06  4.4306e-20  7.2950e-20  0:00:19  273
   228  1.1588e-04  3.2532e-06  8.1004e-08  4.7820e-20  2.5401e-04  6.6068e-04  4.4377e-05  1.6131e-05  4.3331e-05  2.8586e-06  4.3919e-20  7.4685e-20  0:00:15  272
   229  1.1508e-04  3.2504e-06  8.0370e-08  4.7695e-20  2.5387e-04  6.5993e-04  4.3890e-05  1.5937e-05  4.2846e-05  2.8376e-06  4.3570e-20  8.0365e-20  0:00:12  271
   230  1.1427e-04  3.2477e-06  7.9744e-08  4.7312e-20  2.5374e-04  6.5920e-04  4.3413e-05  1.5747e-05  4.2369e-05  2.8051e-06  4.3171e-20  7.3943e-20  0:00:10  270
   231  1.1348e-04  3.2449e-06  7.9137e-08  4.6990e-20  2.5360e-04  6.5843e-04  4.2939e-05  1.5560e-05  4.1898e-05  2.7886e-06  4.2824e-20  7.2590e-20  0:00:08  269

  iter  continuity  x-velocity  y-velocity  z-velocity           k     epsilon   uu-stress   vv-stress   ww-stress   uv-stress   vw-stress   uw-stress     time/iter
   232  1.1274e-04  3.2422e-06  7.8564e-08  4.7371e-20  2.5345e-04  6.5764e-04  4.2473e-05  1.5373e-05  4.1434e-05  2.7682e-06  4.2482e-20  7.6209e-20  0:00:06  268
   233  1.1203e-04  3.2395e-06  7.8005e-08  4.6979e-20  2.5332e-04  6.5690e-04  4.2016e-05  1.5190e-05  4.0978e-05  2.7367e-06  4.2133e-20  8.1319e-20  0:00:58  267
   234  1.1125e-04  3.2369e-06  7.7450e-08  4.7426e-20  2.5318e-04  6.5610e-04  4.1563e-05  1.5010e-05  4.0527e-05  2.7205e-06  4.1745e-20  7.9005e-20  0:00:46  266
   235  1.1039e-04  3.2343e-06  7.6902e-08  4.6899e-20  2.5304e-04  6.5530e-04  4.1116e-05  1.4833e-05  4.0082e-05  2.7001e-06  4.1402e-20  7.1418e-20  0:00:37  265
   236  1.0937e-04  3.2317e-06  7.6359e-08  4.6432e-20  2.5291e-04  6.5453e-04  4.0677e-05  1.4660e-05  3.9643e-05  2.6691e-06  4.0983e-20  7.3826e-20  0:00:30  264
   237  1.1410e-04  3.2291e-06  7.5820e-08  4.6878e-20  2.5277e-04  6.5371e-04  4.0242e-05  1.4487e-05  3.9211e-05  2.6532e-06  4.0638e-20  7.5727e-20  0:00:24  263
   238  1.0928e-04  3.2266e-06  7.5288e-08  4.6866e-20  2.5263e-04  6.5289e-04  3.9813e-05  1.4317e-05  3.8785e-05  2.6334e-06  4.0258e-20  6.9050e-20  0:00:19  262
   239  1.0965e-04  3.2241e-06  7.4797e-08  4.6985e-20  2.5249e-04  6.5206e-04  3.9390e-05  1.4149e-05  3.8364e-05  2.6128e-06  3.9894e-20  6.3837e-20  0:00:15  261
   240  1.1133e-04  3.2216e-06  7.4332e-08  4.6639e-20  2.5236e-04  6.5126e-04  3.8975e-05  1.3985e-05  3.7950e-05  2.5826e-06  3.9555e-20  5.9747e-20  0:00:12  260
   241  1.0745e-04  3.2191e-06  7.3818e-08  4.6223e-20  2.5222e-04  6.5042e-04  3.8563e-05  1.3823e-05  3.7541e-05  2.5668e-06  3.9202e-20  6.8625e-20  0:00:09  259
   242  1.0879e-04  3.2167e-06  7.3319e-08  4.5668e-20  2.5208e-04  6.4957e-04  3.8157e-05  1.3662e-05  3.7138e-05  2.5474e-06  3.8853e-20  7.1293e-20  0:00:59  258

  iter  continuity  x-velocity  y-velocity  z-velocity           k     epsilon   uu-stress   vv-stress   ww-stress   uv-stress   vw-stress   uw-stress     time/iter
   243  1.1186e-04  3.2143e-06  7.2812e-08  4.5310e-20  2.5194e-04  6.4871e-04  3.7757e-05  1.3504e-05  3.6740e-05  2.5274e-06  3.8492e-20  6.3096e-20  0:00:47  257
   244  1.1473e-04  3.2119e-06  7.2344e-08  4.6969e-20  2.5182e-04  6.4788e-04  3.7364e-05  1.3348e-05  3.6348e-05  2.4982e-06  3.8214e-20  6.7375e-20  0:00:38  256
   245  1.0569e-04  3.2096e-06  7.2070e-08  4.5393e-20  2.5168e-04  6.4700e-04  3.6973e-05  1.3195e-05  3.5961e-05  2.4827e-06  3.7870e-20  6.4118e-20  0:00:30  255
   246  1.0727e-04  3.2073e-06  7.1671e-08  4.5638e-20  2.5154e-04  6.4612e-04  3.6588e-05  1.3044e-05  3.5579e-05  2.4636e-06  3.7520e-20  5.9198e-20  0:00:24  254
   247  1.1023e-04  3.2050e-06  7.1227e-08  4.5474e-20  2.5140e-04  6.4523e-04  3.6209e-05  1.2895e-05  3.5202e-05  2.4440e-06  3.7253e-20  7.2980e-20  0:00:19  253
   248  1.1249e-04  3.2027e-06  7.0797e-08  4.5102e-20  2.5126e-04  6.4434e-04  3.5834e-05  1.2747e-05  3.4831e-05  2.4244e-06  3.6866e-20  6.8030e-20  0:00:15  252
   249  1.0642e-04  3.2004e-06  7.0380e-08  4.5208e-20  2.5112e-04  6.4344e-04  3.5464e-05  1.2602e-05  3.4464e-05  2.4049e-06  3.6544e-20  6.6746e-20  0:00:12  251
   250  1.0364e-04  3.1982e-06  6.9963e-08  4.5037e-20  2.5099e-04  6.4256e-04  3.5102e-05  1.2459e-05  3.4103e-05  2.3771e-06  3.6211e-20  7.1614e-20  0:00:10  250
   251  1.0648e-04  3.1960e-06  6.9540e-08  4.4864e-20  2.5085e-04  6.4164e-04  3.4741e-05  1.2318e-05  3.3746e-05  2.3619e-06  3.5895e-20  6.0770e-20  0:00:57  249
   252  1.0829e-04  3.1938e-06  6.9110e-08  4.3716e-20  2.5071e-04  6.4072e-04  3.4386e-05  1.2178e-05  3.3394e-05  2.3437e-06  3.5566e-20  5.8456e-20  0:00:46  248
   253  1.0850e-04  3.1917e-06  6.8680e-08  4.4093e-20  2.5057e-04  6.3979e-04  3.4035e-05  1.2041e-05  3.3046e-05  2.3248e-06  3.5252e-20  5.8015e-20  0:00:36  247

  iter  continuity  x-velocity  y-velocity  z-velocity           k     epsilon   uu-stress   vv-stress   ww-stress   uv-stress   vw-stress   uw-stress     time/iter
   254  9.9158e-05  3.1895e-06  6.8262e-08  4.3701e-20  2.5043e-04  6.3885e-04  3.3689e-05  1.1905e-05  3.2703e-05  2.3059e-06  3.4965e-20  6.7978e-20  0:00:29  246
   255  1.0241e-04  3.1874e-06  6.7865e-08  4.3516e-20  2.5028e-04  6.3790e-04  3.3347e-05  1.1772e-05  3.2364e-05  2.2870e-06  3.4656e-20  6.3465e-20  0:00:23  245
   256  1.0370e-04  3.1853e-06  6.7520e-08  4.4741e-20  2.5014e-04  6.3695e-04  3.3010e-05  1.1640e-05  3.2030e-05  2.2684e-06  3.4350e-20  6.3972e-20  0:00:18  244
   257  1.0526e-04  3.1833e-06  6.7251e-08  4.3990e-20  2.5000e-04  6.3599e-04  3.2677e-05  1.1509e-05  3.1701e-05  2.2499e-06  3.4109e-20  5.5308e-20  0:00:15  243
   258  9.9829e-05  3.1812e-06  6.6959e-08  4.4228e-20  2.4986e-04  6.3502e-04  3.2348e-05  1.1381e-05  3.1375e-05  2.2315e-06  3.3866e-20  6.3350e-20  0:00:12  242
   259  9.7280e-05  3.1792e-06  6.6626e-08  4.3324e-20  2.4971e-04  6.3405e-04  3.2023e-05  1.1255e-05  3.1054e-05  2.2131e-06  3.3567e-20  4.6241e-20  0:00:09  241
   260  9.9779e-05  3.1772e-06  6.6271e-08  4.3846e-20  2.4957e-04  6.3307e-04  3.1703e-05  1.1130e-05  3.0737e-05  2.1950e-06  3.3286e-20  5.9899e-20  0:00:07  240
   261  1.0079e-04  3.1752e-06  6.5907e-08  4.3364e-20  2.4942e-04  6.3208e-04  3.1386e-05  1.1006e-05  3.0424e-05  2.1770e-06  3.3001e-20  5.7421e-20  0:00:06  239
   262  1.0138e-04  3.1733e-06  6.5540e-08  4.4249e-20  2.4928e-04  6.3108e-04  3.1074e-05  1.0884e-05  3.0115e-05  2.1590e-06  3.2735e-20  5.4260e-20  0:00:05  238
   263  9.3800e-05  3.1713e-06  6.5174e-08  4.3763e-20  2.4913e-04  6.3008e-04  3.0765e-05  1.0765e-05  2.9810e-05  2.1411e-06  3.2447e-20  5.4010e-20  0:00:51  237
   264  9.5698e-05  3.1694e-06  6.4808e-08  4.3709e-20  2.4899e-04  6.2906e-04  3.0461e-05  1.0646e-05  2.9509e-05  2.1235e-06  3.2196e-20  5.0389e-20  0:00:41  236

  iter  continuity  x-velocity  y-velocity  z-velocity           k     epsilon   uu-stress   vv-stress   ww-stress   uv-stress   vw-stress   uw-stress     time/iter
   265  9.6968e-05  3.1675e-06  6.4445e-08  4.3726e-20  2.4884e-04  6.2804e-04  3.0160e-05  1.0529e-05  2.9212e-05  2.1059e-06  3.1937e-20  5.7906e-20  0:00:32  235
   266  9.7796e-05  3.1657e-06  6.4084e-08  4.3303e-20  2.4869e-04  6.2702e-04  2.9863e-05  1.0413e-05  2.8918e-05  2.0884e-06  3.1636e-20  6.2144e-20  0:00:26  234
   267  9.4271e-05  3.1638e-06  6.3725e-08  4.2361e-20  2.4854e-04  6.2598e-04  2.9569e-05  1.0299e-05  2.8628e-05  2.0710e-06  3.1369e-20  5.3771e-20  0:00:21  233
   268  9.0638e-05  3.1620e-06  6.3368e-08  4.2075e-20  2.4839e-04  6.2494e-04  2.9280e-05  1.0187e-05  2.8342e-05  2.0537e-06  3.1096e-20  5.0750e-20  0:00:16  232
   269  9.2981e-05  3.1602e-06  6.3013e-08  4.2453e-20  2.4824e-04  6.2389e-04  2.8993e-05  1.0075e-05  2.8060e-05  2.0365e-06  3.0857e-20  5.7550e-20  0:00:13  231
   270  9.3592e-05  3.1584e-06  6.2660e-08  4.3354e-20  2.4809e-04  6.2283e-04  2.8711e-05  9.9661e-06  2.7781e-05  2.0194e-06  3.0620e-20  5.5564e-20  0:00:10  230
   271  9.4329e-05  3.1566e-06  6.2309e-08  4.3066e-20  2.4794e-04  6.2177e-04  2.8432e-05  9.8576e-06  2.7506e-05  2.0025e-06  3.0356e-20  5.4766e-20  0:00:08  229
   272  8.8181e-05  3.1549e-06  6.1961e-08  4.2400e-20  2.4779e-04  6.2070e-04  2.8156e-05  9.7506e-06  2.7234e-05  1.9857e-06  3.0091e-20  5.4462e-20  0:00:07  228
   273  8.9029e-05  3.1532e-06  6.1613e-08  4.2406e-20  2.4763e-04  6.1962e-04  2.7884e-05  9.6452e-06  2.6965e-05  1.9689e-06  2.9839e-20  4.9535e-20  0:00:05  227
   274  9.0237e-05  3.1514e-06  6.1268e-08  4.1957e-20  2.4748e-04  6.1853e-04  2.7615e-05  9.5410e-06  2.6700e-05  1.9522e-06  2.9565e-20  5.8256e-20  0:00:04  226
   275  9.0719e-05  3.1497e-06  6.0925e-08  4.2111e-20  2.4732e-04  6.1744e-04  2.7349e-05  9.4379e-06  2.6438e-05  1.9357e-06  2.9274e-20  5.0822e-20  0:00:03  225

  iter  continuity  x-velocity  y-velocity  z-velocity           k     epsilon   uu-stress   vv-stress   ww-stress   uv-stress   vw-stress   uw-stress     time/iter
   276  8.8064e-05  3.1481e-06  6.0584e-08  4.1504e-20  2.4717e-04  6.1634e-04  2.7086e-05  9.3363e-06  2.6179e-05  1.9192e-06  2.9054e-20  5.0597e-20  0:00:47  224
   277  8.4599e-05  3.1464e-06  6.0246e-08  4.1579e-20  2.4701e-04  6.1523e-04  2.6827e-05  9.2361e-06  2.5924e-05  1.9028e-06  2.8758e-20  4.6841e-20  0:00:38  223
   278  8.6674e-05  3.1448e-06  5.9914e-08  4.1577e-20  2.4685e-04  6.1412e-04  2.6571e-05  9.1368e-06  2.5671e-05  1.8866e-06  2.8520e-20  4.4360e-20  0:00:30  222
   279  8.7227e-05  3.1432e-06  5.9639e-08  4.2804e-20  2.4669e-04  6.1299e-04  2.6317e-05  9.0390e-06  2.5422e-05  1.8704e-06  2.8256e-20  4.7035e-20  0:00:24  221
   280  8.7589e-05  3.1416e-06  5.9364e-08  4.1571e-20  2.4653e-04  6.1187e-04  2.6067e-05  8.9423e-06  2.5176e-05  1.8544e-06  2.8022e-20  5.1392e-20  0:00:19  220
   281  8.2552e-05  3.1400e-06  5.9090e-08  4.2572e-20  2.4637e-04  6.1073e-04  2.5820e-05  8.8466e-06  2.4933e-05  1.8384e-06  2.7785e-20  5.1257e-20  0:00:15  219
   282  8.3272e-05  3.1384e-06  5.8815e-08  4.2182e-20  2.4621e-04  6.0959e-04  2.5576e-05  8.7523e-06  2.4692e-05  1.8225e-06  2.7558e-20  5.1249e-20  0:00:12  218
   283  8.4229e-05  3.1369e-06  5.8541e-08  4.2022e-20  2.4604e-04  6.0844e-04  2.5335e-05  8.6591e-06  2.4455e-05  1.8068e-06  2.7298e-20  5.3840e-20  0:00:10  217
   284  8.4523e-05  3.1353e-06  5.8268e-08  4.1703e-20  2.4588e-04  6.0728e-04  2.5096e-05  8.5668e-06  2.4221e-05  1.7911e-06  2.7034e-20  5.2226e-20  0:00:08  216
   285  8.1608e-05  3.1338e-06  5.7997e-08  4.1381e-20  2.4571e-04  6.0612e-04  2.4861e-05  8.4760e-06  2.3989e-05  1.7755e-06  2.6787e-20  4.7905e-20  0:00:06  215
   286  7.9632e-05  3.1323e-06  5.7727e-08  4.1293e-20  2.4554e-04  6.0495e-04  2.4628e-05  8.3859e-06  2.3760e-05  1.7601e-06  2.6562e-20  5.0910e-20  0:00:05  214

  iter  continuity  x-velocity  y-velocity  z-velocity           k     epsilon   uu-stress   vv-stress   ww-stress   uv-stress   vw-stress   uw-stress     time/iter
   287  8.1123e-05  3.1309e-06  5.7457e-08  4.1835e-20  2.4538e-04  6.0377e-04  2.4398e-05  8.2971e-06  2.3534e-05  1.7447e-06  2.6355e-20  4.9664e-20  0:00:04  213
   288  8.1348e-05  3.1294e-06  5.7189e-08  4.1349e-20  2.4521e-04  6.0259e-04  2.4170e-05  8.2092e-06  2.3311e-05  1.7294e-06  2.6103e-20  5.4618e-20  0:00:03  212
   289  8.0882e-05  3.1280e-06  5.6921e-08  4.1576e-20  2.4504e-04  6.0140e-04  2.3945e-05  8.1223e-06  2.3090e-05  1.7142e-06  2.5880e-20  4.4378e-20  0:00:45  211
   290  7.6926e-05  3.1265e-06  5.6654e-08  4.1084e-20  2.4486e-04  6.0021e-04  2.3723e-05  8.0366e-06  2.2872e-05  1.6991e-06  2.5661e-20  5.1947e-20  0:00:36  210
   291  7.8249e-05  3.1251e-06  5.6389e-08  4.0828e-20  2.4469e-04  5.9901e-04  2.3504e-05  7.9517e-06  2.2656e-05  1.6841e-06  2.5475e-20  4.7879e-20  0:00:28  209
   292  7.8705e-05  3.1237e-06  5.6124e-08  3.9684e-20  2.4452e-04  5.9780e-04  2.3287e-05  7.8679e-06  2.2443e-05  1.6692e-06  2.5234e-20  4.9241e-20  0:00:23  208
   293  7.9002e-05  3.1223e-06  5.5861e-08  4.1439e-20  2.4434e-04  5.9658e-04  2.3072e-05  7.7849e-06  2.2233e-05  1.6545e-06  2.5026e-20  5.2203e-20  0:00:18  207
   294  7.5322e-05  3.1210e-06  5.5598e-08  4.0855e-20  2.4416e-04  5.9536e-04  2.2860e-05  7.7030e-06  2.2025e-05  1.6397e-06  2.4797e-20  5.8180e-20  0:00:14  206
   295  7.5288e-05  3.1196e-06  5.5336e-08  4.0754e-20  2.4398e-04  5.9414e-04  2.2651e-05  7.6218e-06  2.1820e-05  1.6252e-06  2.4583e-20  4.6054e-20  0:00:11  205
   296  7.6058e-05  3.1183e-06  5.5075e-08  4.0815e-20  2.4380e-04  5.9290e-04  2.2444e-05  7.5417e-06  2.1617e-05  1.6106e-06  2.4334e-20  4.0889e-20  0:00:09  204
   297  7.6144e-05  3.1170e-06  5.4816e-08  3.9647e-20  2.4362e-04  5.9166e-04  2.2239e-05  7.4622e-06  2.1416e-05  1.5962e-06  2.4094e-20  3.6920e-20  0:00:07  203

  iter  continuity  x-velocity  y-velocity  z-velocity           k     epsilon   uu-stress   vv-stress   ww-stress   uv-stress   vw-stress   uw-stress     time/iter
   298  7.3979e-05  3.1157e-06  5.4557e-08  4.0196e-20  2.4344e-04  5.9042e-04  2.2037e-05  7.3837e-06  2.1218e-05  1.5819e-06  2.3866e-20  4.3443e-20  0:00:06  202
   299  7.2379e-05  3.1144e-06  5.4300e-08  4.0171e-20  2.4325e-04  5.8917e-04  2.1837e-05  7.3060e-06  2.1022e-05  1.5677e-06  2.3660e-20  3.6754e-20  0:00:05  201
   300  7.3465e-05  3.1131e-06  5.4052e-08  3.9565e-20  2.4307e-04  5.8791e-04  2.1639e-05  7.2291e-06  2.0829e-05  1.5536e-06  2.3429e-20  4.9186e-20  0:00:04  200
   301  7.3563e-05  3.1118e-06  5.3810e-08  4.1031e-20  2.4288e-04  5.8665e-04  2.1443e-05  7.1528e-06  2.0637e-05  1.5396e-06  2.3233e-20  4.3732e-20  0:00:03  199
   302  7.2682e-05  3.1106e-06  5.3570e-08  4.0506e-20  2.4269e-04  5.8538e-04  2.1250e-05  7.0773e-06  2.0448e-05  1.5257e-06  2.3034e-20  4.2605e-20  0:00:42  198
   303  7.0126e-05  3.1094e-06  5.3333e-08  4.0311e-20  2.4250e-04  5.8410e-04  2.1060e-05  7.0023e-06  2.0262e-05  1.5118e-06  2.2797e-20  4.0985e-20  0:00:33  197
   304  7.1084e-05  3.1081e-06  5.3098e-08  4.0366e-20  2.4231e-04  5.8282e-04  2.0871e-05  6.9278e-06  2.0078e-05  1.4982e-06  2.2580e-20  4.1504e-20  0:00:27  196
   305  7.1292e-05  3.1069e-06  5.2866e-08  4.0251e-20  2.4211e-04  5.8154e-04  2.0685e-05  6.8533e-06  1.9896e-05  1.4846e-06  2.2426e-20  3.2769e-20  0:00:21  195
   306  7.1103e-05  3.1058e-06  5.2643e-08  4.0136e-20  2.4192e-04  5.8025e-04  2.0501e-05  6.7795e-06  1.9716e-05  1.4712e-06  2.2223e-20  3.7522e-20  0:00:17  194
   307  6.8317e-05  3.1046e-06  5.2434e-08  3.9255e-20  2.4172e-04  5.7895e-04  2.0319e-05  6.7068e-06  1.9538e-05  1.4578e-06  2.2027e-20  4.1676e-20  0:00:13  193
   308  6.8746e-05  3.1034e-06  5.2234e-08  3.9644e-20  2.4152e-04  5.7765e-04  2.0139e-05  6.6352e-06  1.9363e-05  1.4444e-06  2.1867e-20  3.8161e-20  0:00:11  192

  iter  continuity  x-velocity  y-velocity  z-velocity           k     epsilon   uu-stress   vv-stress   ww-stress   uv-stress   vw-stress   uw-stress     time/iter
   309  6.9049e-05  3.1023e-06  5.1985e-08  3.9438e-20  2.4132e-04  5.7634e-04  1.9961e-05  6.5646e-06  1.9189e-05  1.4311e-06  2.1698e-20  3.2944e-20  0:00:08  191
   310  6.9093e-05  3.1011e-06  5.1760e-08  3.8972e-20  2.4112e-04  5.7502e-04  1.9784e-05  6.4951e-06  1.9016e-05  1.4178e-06  2.1494e-20  3.3816e-20  0:00:07  190
   311  6.6776e-05  3.1000e-06  5.1566e-08  3.9190e-20  2.4091e-04  5.7370e-04  1.9610e-05  6.4267e-06  1.8846e-05  1.4046e-06  2.1299e-20  4.2043e-20  0:00:05  189
   312  6.6585e-05  3.0989e-06  5.1350e-08  3.8115e-20  2.4071e-04  5.7238e-04  1.9437e-05  6.3592e-06  1.8677e-05  1.3915e-06  2.1122e-20  4.4123e-20  0:00:42  188
   313  6.7152e-05  3.0978e-06  5.1134e-08  3.8417e-20  2.4050e-04  5.7105e-04  1.9266e-05  6.2927e-06  1.8511e-05  1.3784e-06  2.0938e-20  4.1510e-20  0:00:33  187
   314  6.7194e-05  3.0969e-06  5.0924e-08  3.8372e-20  2.4029e-04  5.6971e-04  1.9096e-05  6.2271e-06  1.8346e-05  1.3654e-06  2.0765e-20  4.2117e-20  0:00:27  186
   315  6.5769e-05  3.0966e-06  5.0719e-08  3.8501e-20  2.4008e-04  5.6837e-04  1.8929e-05  6.1625e-06  1.8182e-05  1.3525e-06  2.0588e-20  3.5999e-20  0:00:21  185
[...]
 17510  6.4324e-10  4.6617e-10  3.6067e-13  0.0000e+00  3.1252e-09  1.0105e-08  4.7831e-11  1.4607e-11  2.9219e-11  1.1141e-11  2.8267e-25  6.6605e-21  1:41:33 82990
 17511  6.4290e-10  4.6592e-10  3.6048e-13  0.0000e+00  3.1236e-09  1.0099e-08  4.7806e-11  1.4599e-11  2.9203e-11  1.1135e-11  1.9340e-25  6.6445e-21  1:21:15 82989
 17512  6.4255e-10  4.6567e-10  3.6028e-13  0.0000e+00  3.1219e-09  1.0094e-08  4.7780e-11  1.4592e-11  2.9188e-11  1.1129e-11  1.7035e-25  7.0239e-21  1:05:00 82988
 17513  6.4221e-10  4.6542e-10  3.6009e-13  0.0000e+00  3.1202e-09  1.0089e-08  4.7754e-11  1.4584e-11  2.9172e-11  1.1123e-11  1.9018e-25  6.9996e-21  5:28:37 82987
 17514  6.4186e-10  4.6517e-10  3.5990e-13  0.0000e+00  3.1185e-09  1.0083e-08  4.7729e-11  1.4576e-11  2.9156e-11  1.1117e-11  1.9038e-25  6.4428e-21  4:22:53 82986
 17515  6.4152e-10  4.6492e-10  3.5970e-13  0.0000e+00  3.1169e-09  1.0078e-08  4.7703e-11  1.4568e-11  2.9141e-11  1.1111e-11  1.4309e-25  8.7838e-21  3:30:19 82985
 17516  6.4117e-10  4.6467e-10  3.5951e-13  0.0000e+00  3.1152e-09  1.0072e-08  4.7677e-11  1.4560e-11  2.9125e-11  1.1105e-11  1.2386e-25  7.7007e-21  2:48:15 82984

  iter  continuity  x-velocity  y-velocity  z-velocity           k     epsilon   uu-stress   vv-stress   ww-stress   uv-stress   vw-stress   uw-stress     time/iter
 17517  6.4083e-10  4.6442e-10  3.5932e-13  0.0000e+00  3.1135e-09  1.0067e-08  4.7652e-11  1.4553e-11  2.9109e-11  1.1100e-11  3.7980e-25  8.1208e-21  2:14:36 82983
 17518  6.4048e-10  4.6417e-10  3.5912e-13  0.0000e+00  3.1118e-09  1.0061e-08  4.7626e-11  1.4545e-11  2.9094e-11  1.1094e-11  2.3536e-25  7.5735e-21  1:47:40 82982
 17519  6.4014e-10  4.6392e-10  3.5893e-13  0.0000e+00  3.1102e-09  1.0056e-08  4.7601e-11  1.4537e-11  2.9078e-11  1.1088e-11  1.5325e-25  7.1006e-21  1:26:08 82981
 17520  6.3980e-10  4.6367e-10  3.5874e-13  0.0000e+00  3.1085e-09  1.0051e-08  4.7575e-11  1.4529e-11  2.9062e-11  1.1082e-11  1.4297e-25  6.2724e-21  1:08:55 82980
 17521  6.3945e-10  4.6343e-10  3.5854e-13  0.0000e+00  3.1068e-09  1.0045e-08  4.7550e-11  1.4521e-11  2.9047e-11  1.1076e-11  1.2232e-25  6.4573e-21  5:31:43 82979
 17522  6.3911e-10  4.6318e-10  3.5835e-13  0.0000e+00  3.1052e-09  1.0040e-08  4.7524e-11  1.4513e-11  2.9031e-11  1.1070e-11  1.1502e-25  6.9734e-21  4:25:23 82978
 17523  6.3877e-10  4.6293e-10  3.5816e-13  0.0000e+00  3.1035e-09  1.0035e-08  4.7499e-11  1.4506e-11  2.9016e-11  1.1064e-11  1.2547e-25  7.3712e-21  3:32:18 82977
 17524  6.3842e-10  4.6268e-10  3.5797e-13  0.0000e+00  3.1018e-09  1.0029e-08  4.7473e-11  1.4498e-11  2.9000e-11  1.1058e-11  1.4768e-25  7.4787e-21  2:49:50 82976
 17525  6.3808e-10  4.6243e-10  3.5777e-13  0.0000e+00  3.1002e-09  1.0024e-08  4.7448e-11  1.4490e-11  2.8984e-11  1.1052e-11  8.5827e-26  6.6544e-21  2:15:52 82975
 17526  6.3774e-10  4.6218e-10  3.5758e-13  0.0000e+00  3.0985e-09  1.0018e-08  4.7422e-11  1.4482e-11  2.8969e-11  1.1046e-11  9.9190e-26  5.9800e-21  1:48:42 82974
 17527  6.3740e-10  4.6193e-10  3.5739e-13  0.0000e+00  3.0968e-09  1.0013e-08  4.7397e-11  1.4475e-11  2.8953e-11  1.1040e-11  5.9624e-26  6.2044e-21  1:26:57 82973

  iter  continuity  x-velocity  y-velocity  z-velocity           k     epsilon   uu-stress   vv-stress   ww-stress   uv-stress   vw-stress   uw-stress     time/iter
 17528  6.3705e-10  4.6169e-10  3.5720e-13  0.0000e+00  3.0952e-09  1.0008e-08  4.7371e-11  1.4467e-11  2.8938e-11  1.1034e-11  9.0620e-26  7.4372e-21  1:09:34 82972
 17529  6.3671e-10  4.6144e-10  3.5701e-13  0.0000e+00  3.0935e-09  1.0002e-08  4.7346e-11  1.4459e-11  2.8922e-11  1.1028e-11  6.9133e-26  8.1621e-21  0:55:39 82971
 17530  6.3637e-10  4.6119e-10  3.5681e-13  0.0000e+00  3.0918e-09  9.9968e-09  4.7320e-11  1.4451e-11  2.8907e-11  1.1022e-11  5.5546e-26  8.8952e-21  5:21:05 82970
!17530 solution is converged

Calculation complete.



> (cx-gui-do cx-activate-item "Information*OK")
(cx-gui-do cx-activate-item "Information*OK")



> (cx-gui-do cx-activate-item "Ribbon*Frame1*Frame6(Results)*Table1*Table3(Surface)*PushButton1(Create)")



> (cx-gui-do cx-activate-item "MenuBar*PopupMenuCreate*Line/Rake...")



> (cx-gui-do cx-set-real-entry-list "Line/Rake Surface*Table1*Frame5(End Points)*Table1*RealEntry2(y0)" '( -1))



> (cx-gui-do cx-activate-item "Line/Rake Surface*PanelButtons*PushButton1(OK)")
(cx-gui-do cx-activate-item "Line/Rake Surface*PanelButtons*PushButton1(OK)")



> (cx-gui-do cx-activate-item "Line/Rake Surface*PanelButtons*PushButton2(Cancel)")
(cx-gui-do cx-activate-item "Line/Rake Surface*PanelButtons*PushButton2(Cancel)")



> (cx-gui-do cx-set-list-tree-selections "NavigationPane*Frame2*Table1*List_Tree2" (list "Results|Plots|XY Plot"))



> (cx-gui-do cx-set-list-tree-selections "NavigationPane*Frame2*Table1*List_Tree2" (list "Results|Plots|XY Plot"))



> (cx-gui-do cx-activate-item "NavigationPane*Frame2*Table1*List_Tree2")



> (cx-gui-do cx-set-list-tree-selections "NavigationPane*Frame2*Table1*List_Tree2" (list "Results|Plots|XY Plot"))



> (cx-gui-do cx-set-text-entry "Solution XY Plot*Table1*TextEntry4(XY Plot Name)" "xvel-plot")



> (cx-gui-do cx-set-toggle-button2 "Solution XY Plot*Table1*Table1*ButtonBox1(Options)*CheckButton2(Position on X Axis)" #f)



> (cx-gui-do cx-activate-item "Solution XY Plot*Table1*Table1*ButtonBox1(Options)*CheckButton2(Position on X Axis)")



> (cx-gui-do cx-set-list-selections "Solution XY Plot*Table1*Table3*Table1*DropDownList1(Y Axis Function)" '( 2))



> (cx-gui-do cx-activate-item "Solution XY Plot*Table1*Table3*Table1*DropDownList1(Y Axis Function)")



> (cx-gui-do cx-set-list-selections "Solution XY Plot*Table1*Table3*Table1*DropDownList2" '( 1))



> (cx-gui-do cx-activate-item "Solution XY Plot*Table1*Table3*Table1*DropDownList2")



> (cx-gui-do cx-set-list-selections "Solution XY Plot*Table1*Table3*Table2*DropDownList1(X Axis Function)" '( 7))



> (cx-gui-do cx-activate-item "Solution XY Plot*Table1*Table3*Table2*DropDownList1(X Axis Function)")



> (cx-gui-do cx-set-list-selections "Solution XY Plot*Table1*Table3*Table2*DropDownList2" '( 18))



> (cx-gui-do cx-activate-item "Solution XY Plot*Table1*Table3*Table2*DropDownList2")



> (cx-gui-do cx-set-list-selections "Solution XY Plot*Table1*Table3*Frame3*List1(Surfaces)" '( 3))



> (cx-gui-do cx-activate-item "Solution XY Plot*Table1*Table3*Frame3*List1(Surfaces)")



> (cx-gui-do cx-activate-item "Solution XY Plot*PanelButtons*PushButton1(OK)")
(cx-gui-do cx-activate-item "Solution XY Plot*PanelButtons*PushButton1(OK)")



> (cx-gui-do cx-activate-item "Solution XY Plot*PanelButtons*PushButton5(Axes)")



> (cx-gui-do cx-set-toggle-button2 "Axes - Solution XY Plot*Table1*ToggleBox2(Options)*CheckButton1(Log)" #t)



> (cx-gui-do cx-activate-item "Axes - Solution XY Plot*Table1*ToggleBox2(Options)*CheckButton1(Log)")



> (cx-gui-do cx-activate-item "Axes - Solution XY Plot*PanelButtons*PushButton1(OK)")
(cx-gui-do cx-activate-item "Axes - Solution XY Plot*PanelButtons*PushButton1(OK)")



> (cx-gui-do cx-activate-item "Axes - Solution XY Plot*PanelButtons*PushButton2(Cancel)")
(cx-gui-do cx-activate-item "Axes - Solution XY Plot*PanelButtons*PushButton2(Cancel)")



> (cx-gui-do cx-activate-item "Solution XY Plot*PanelButtons*PushButton2(Cancel)")
(cx-gui-do cx-activate-item "Solution XY Plot*PanelButtons*PushButton2(Cancel)")



> (cx-gui-do cx-activate-item "ToolBar*Copy*savepicture")



> (cx-gui-do cx-activate-item "Save Picture*PanelButtons*PushButton1(OK)")
(cx-gui-do cx-activate-item "Save Picture*PanelButtons*PushButton1(OK)")



> (cx-gui-do cx-set-file-dialog-entries "Select File" '( "1DChannelFlow_RSTM_Re-180_XVelocityPlot") "Hardcopy Files (*.png)")



> (cx-gui-do cx-activate-item "Save Picture*PanelButtons*PushButton2(Cancel)")
(cx-gui-do cx-activate-item "Save Picture*PanelButtons*PushButton2(Cancel)")



> (cx-gui-do cx-activate-item "ToolBar*Copy*savepicture")



> (cx-gui-do cx-activate-item "Save Picture*PanelButtons*PushButton1(OK)")
(cx-gui-do cx-activate-item "Save Picture*PanelButtons*PushButton1(OK)")



> (cx-gui-do cx-set-file-dialog-entries "Select File" '( "1DChannelFlow_RSTM_Re-180_ScaledResiduals.png") "Hardcopy Files (*.png)")



> (cx-gui-do cx-activate-item "Save Picture*PanelButtons*PushButton2(Cancel)")
(cx-gui-do cx-activate-item "Save Picture*PanelButtons*PushButton2(Cancel)")



> (cx-gui-do cx-activate-item "ToolBar*Copy*savepicture")



> (cx-gui-do cx-activate-item "Save Picture*PanelButtons*PushButton1(OK)")
(cx-gui-do cx-activate-item "Save Picture*PanelButtons*PushButton1(OK)")



> (cx-gui-do cx-set-file-dialog-entries "Select File" '( "1DChannelFlow_RSTM_Re-180_MeanVelocityPlot.png") "Hardcopy Files (*.png)")



> (cx-gui-do cx-activate-item "Save Picture*PanelButtons*PushButton2(Cancel)")
(cx-gui-do cx-activate-item "Save Picture*PanelButtons*PushButton2(Cancel)")



> (cx-gui-do cx-activate-item "MenuBar*ExportSubMenu*Solution Data...")



> (cx-gui-do cx-set-list-selections "Export*Table1*Table1*DropDownList2(File Type)" '( 1))



> (cx-gui-do cx-activate-item "Export*Table1*Table1*DropDownList2(File Type)")



> (cx-gui-do cx-set-list-selections "Export*Table1*Table2*Table3*List1(Surfaces)" '( 3))



> (cx-gui-do cx-activate-item "Export*Table1*Table2*Table3*List1(Surfaces)")



> (cx-gui-do cx-set-list-selections "Export*Table1*Table2*Table4*List1(Quantities)" '( 10))



> (cx-gui-do cx-activate-item "Export*Table1*Table2*Table4*List1(Quantities)")



> (cx-gui-do cx-set-list-selections "Export*Table1*Table2*Table4*List1(Quantities)" '( 10 11))



> (cx-gui-do cx-activate-item "Export*Table1*Table2*Table4*List1(Quantities)")



> (cx-gui-do cx-set-list-selections "Export*Table1*Table2*Table4*List1(Quantities)" '( 10 11 12))



> (cx-gui-do cx-activate-item "Export*Table1*Table2*Table4*List1(Quantities)")



> (cx-gui-do cx-set-list-selections "Export*Table1*Table2*Table4*List1(Quantities)" '( 10 12))



> (cx-gui-do cx-activate-item "Export*Table1*Table2*Table4*List1(Quantities)")



> (cx-gui-do cx-set-list-selections "Export*Table1*Table2*Table4*List1(Quantities)" '( 10 11 12))



> (cx-gui-do cx-activate-item "Export*Table1*Table2*Table4*List1(Quantities)")



> (cx-gui-do cx-set-list-selections "Export*Table1*Table2*Table4*List1(Quantities)" '( 9 10 11 12))



> (cx-gui-do cx-activate-item "Export*Table1*Table2*Table4*List1(Quantities)")



> (cx-gui-do cx-set-list-selections "Export*Table1*Table2*Table4*List1(Quantities)" '( 9 10 11 12 35))



> (cx-gui-do cx-activate-item "Export*Table1*Table2*Table4*List1(Quantities)")



> (cx-gui-do cx-set-list-selections "Export*Table1*Table2*Table4*List1(Quantities)" '( 9 10 11 12 35 36))



> (cx-gui-do cx-activate-item "Export*Table1*Table2*Table4*List1(Quantities)")



> (cx-gui-do cx-set-list-selections "Export*Table1*Table2*Table4*List1(Quantities)" '( 9 10 11 12 35 36 37))



> (cx-gui-do cx-activate-item "Export*Table1*Table2*Table4*List1(Quantities)")



> (cx-gui-do cx-set-list-selections "Export*Table1*Table2*Table4*List1(Quantities)" '( 9 10 11 12 35 36 37 38))



> (cx-gui-do cx-activate-item "Export*Table1*Table2*Table4*List1(Quantities)")



> (cx-gui-do cx-set-list-selections "Export*Table1*Table2*Table4*List1(Quantities)" '( 9 10 11 12 35 36 37 38 39))



> (cx-gui-do cx-activate-item "Export*Table1*Table2*Table4*List1(Quantities)")



> (cx-gui-do cx-set-list-selections "Export*Table1*Table2*Table4*List1(Quantities)" '( 9 10 11 12 35 36 37 38 39 40))



> (cx-gui-do cx-activate-item "Export*Table1*Table2*Table4*List1(Quantities)")



> (cx-gui-do cx-set-list-selections "Export*Table1*Table2*Table4*List1(Quantities)" '( 9 10 11 12 35 36 37 38 39 40 41))



> (cx-gui-do cx-activate-item "Export*Table1*Table2*Table4*List1(Quantities)")



> (cx-gui-do cx-set-list-selections "Export*Table1*Table2*Table4*List1(Quantities)" '( 9 10 11 12 35 36 37 38 39 40 41 42))



> (cx-gui-do cx-activate-item "Export*Table1*Table2*Table4*List1(Quantities)")



> (cx-gui-do cx-set-list-selections "Export*Table1*Table2*Table4*List1(Quantities)" '( 9 10 11 12 35 36 37 38 39 40 41 42 43))



> (cx-gui-do cx-activate-item "Export*Table1*Table2*Table4*List1(Quantities)")



> (cx-gui-do cx-set-list-selections "Export*Table1*Table2*Table4*List1(Quantities)" '( 9 10 11 12 35 36 37 38 39 40 41 42 43 44))



> (cx-gui-do cx-activate-item "Export*Table1*Table2*Table4*List1(Quantities)")



> (cx-gui-do cx-set-list-selections "Export*Table1*Table2*Table4*List1(Quantities)" '( 9 10 11 12 35 36 37 38 39 40 41 42 43 44 45))



> (cx-gui-do cx-activate-item "Export*Table1*Table2*Table4*List1(Quantities)")



> (cx-gui-do cx-set-list-selections "Export*Table1*Table2*Table4*List1(Quantities)" '( 9 10 11 12 35 36 37 38 39 40 41 42 43 44 45 46))



> (cx-gui-do cx-activate-item "Export*Table1*Table2*Table4*List1(Quantities)")



> (cx-gui-do cx-set-list-selections "Export*Table1*Table2*Table4*List1(Quantities)" '( 9 10 11 12 35 36 37 38 39 40 41 42 43 44 45 46 49))



> (cx-gui-do cx-activate-item "Export*Table1*Table2*Table4*List1(Quantities)")



> (cx-gui-do cx-set-list-selections "Export*Table1*Table2*Table4*List1(Quantities)" '( 9 10 11 12 35 36 37 38 39 40 41 42 43 44 45 46 49 50))



> (cx-gui-do cx-activate-item "Export*Table1*Table2*Table4*List1(Quantities)")



> (cx-gui-do cx-set-list-selections "Export*Table1*Table2*Table4*List1(Quantities)" '( 9 10 11 12 35 36 37 38 39 40 41 42 43 44 45 46 49 50 51))



> (cx-gui-do cx-activate-item "Export*Table1*Table2*Table4*List1(Quantities)")



> (cx-gui-do cx-set-list-selections "Export*Table1*Table2*Table4*List1(Quantities)" '( 9 10 11 12 35 36 37 38 39 40 41 42 43 44 45 46 49 50 51 53))



> (cx-gui-do cx-activate-item "Export*Table1*Table2*Table4*List1(Quantities)")



> (cx-gui-do cx-set-list-selections "Export*Table1*Table2*Table4*List1(Quantities)" '( 9 10 11 12 35 36 37 38 39 40 41 42 43 44 45 46 49 50 51 53 54))



> (cx-gui-do cx-activate-item "Export*Table1*Table2*Table4*List1(Quantities)")



> (cx-gui-do cx-set-list-selections "Export*Table1*Table2*Table4*List1(Quantities)" '( 9 10 11 12 35 36 37 38 39 40 41 42 43 44 45 46 49 50 51 53 54 55))



> (cx-gui-do cx-activate-item "Export*Table1*Table2*Table4*List1(Quantities)")



> (cx-gui-do cx-set-list-selections "Export*Table1*Table2*Table4*List1(Quantities)" '( 9 10 11 12 35 36 37 38 39 40 41 42 43 44 45 46 49 50 51 53 54 55 57))



> (cx-gui-do cx-activate-item "Export*Table1*Table2*Table4*List1(Quantities)")



> (cx-gui-do cx-set-list-selections "Export*Table1*Table2*Table4*List1(Quantities)" '( 9 10 11 12 35 36 37 38 39 40 41 42 43 44 45 46 49 50 51 53 54 55 57 66))



> (cx-gui-do cx-activate-item "Export*Table1*Table2*Table4*List1(Quantities)")



> (cx-gui-do cx-set-list-selections "Export*Table1*Table2*Table4*List1(Quantities)" '( 9 10 11 12 35 36 37 38 39 40 41 42 43 44 45 46 49 50 51 53 54 55 57 66 67))



> (cx-gui-do cx-activate-item "Export*Table1*Table2*Table4*List1(Quantities)")



> (cx-gui-do cx-set-list-selections "Export*Table1*Table2*Table4*List1(Quantities)" '( 9 10 11 12 35 36 37 38 39 40 41 42 43 44 45 46 49 50 51 53 54 55 57 66 67 84))



> (cx-gui-do cx-activate-item "Export*Table1*Table2*Table4*List1(Quantities)")



> (cx-gui-do cx-set-list-selections "Export*Table1*Table2*Table4*List1(Quantities)" '( 9 10 11 12 35 36 37 38 39 40 41 42 43 44 45 46 49 50 51 53 54 55 57 66 67 84 95))



> (cx-gui-do cx-activate-item "Export*Table1*Table2*Table4*List1(Quantities)")



> (cx-gui-do cx-set-list-selections "Export*Table1*Table2*Table4*List1(Quantities)" '( 9 10 11 12 35 36 37 38 39 40 41 42 43 44 45 46 49 50 51 53 54 55 57 66 67 84 95 96))



> (cx-gui-do cx-activate-item "Export*Table1*Table2*Table4*List1(Quantities)")



> (cx-gui-do cx-set-list-selections "Export*Table1*Table2*Table4*List1(Quantities)" '( 9 10 11 12 35 36 37 38 39 40 41 42 43 44 45 46 49 50 51 53 54 55 57 66 67 84 95 96 99))



> (cx-gui-do cx-activate-item "Export*Table1*Table2*Table4*List1(Quantities)")



> (cx-gui-do cx-set-list-selections "Export*Table1*Table2*Table4*List1(Quantities)" '( 9 10 11 12 35 36 37 38 39 40 41 42 43 44 45 46 49 50 51 53 54 55 57 66 67 84 95 96 99 102))



> (cx-gui-do cx-activate-item "Export*Table1*Table2*Table4*List1(Quantities)")



> (cx-gui-do cx-activate-item "Export*PanelButtons*PushButton1(OK)")
(cx-gui-do cx-activate-item "Export*PanelButtons*PushButton1(OK)")



> (cx-gui-do cx-set-file-dialog-entries "Select File" '( "1DChannelFlow_RSTM_Re-180_Data") "ASCII Files ()")
Writing "C:/Users/s420833/OneDrive - Cranfield University/Group Project_2023-24/Simulations/1D_Channel_Flow-ReynoldsStressTransportModel/Re_180\1DChannelFlow_RSTM_Re-180_Data"...
Writing information to ascii file ...
Done.




> (cx-gui-do cx-activate-item "Export*PanelButtons*PushButton2(Cancel)")
(cx-gui-do cx-activate-item "Export*PanelButtons*PushButton2(Cancel)")



> (cx-gui-do cx-activate-item "MenuBar*WriteSubMenu*Case & Data...")



> (cx-gui-do cx-set-file-dialog-entries "Select File" '( "1DChannelFlow_RSTM_Re-180.cas.h5") "CFF Case/Data Files (*.cas.h5 *.dat.h5 )")
Fast-loading "C:\PROGRA~1\ANSYSI~1\v232\fluent\fluent23.2.0\\addons\afd\lib\hdfio.bin"
Done.

Writing to SOW7132F:"C:/Users/s420833/OneDrive - Cranfield University/Group Project_2023-24/Simulations/1D_Channel_Flow-ReynoldsStressTransportModel/Re_180\1DChannelFlow_RSTM_Re-180.cas.h5" in NODE0 mode and compression level 1 ...
Grouping cells for Laplace smoothing ...
         191 cells,     1 zone  ...
         956 faces,     7 zones ...
         768 nodes,     1 zone  ...
  Done.
Done.

Writing to SOW7132F:"C:/Users/s420833/OneDrive - Cranfield University/Group Project_2023-24/Simulations/1D_Channel_Flow-ReynoldsStressTransportModel/Re_180\1DChannelFlow_RSTM_Re-180.dat.h5" in NODE0 mode and compression level 1 ...
  Writing results.
Done.



> (cx-gui-do cx-activate-item "MenuBar*WriteSubMenu*Stop Journal")



> (cx-gui-do cx-activate-item "MenuBar*ExportSubMenu*Solution Data...")
(cx-gui-do cx-set-list-selections "Export*Table1*Table1*DropDownList2(File Type)" '( 1))
(cx-gui-do cx-activate-item "Export*Table1*Table1*DropDownList2(File Type)")
(cx-gui-do cx-set-list-selections "Export*Table1*Table2*Table4*List1(Quantities)" '( 9 10 11 12 35 36 37 38 39 40 41 42 43 44 45 46 49 50 51 53 54 55 57 66 67 84 95 96 99 102 105))
(cx-gui-do cx-activate-item "Export*Table1*Table2*Table4*List1(Quantities)")
(cx-gui-do cx-set-list-selections "Export*Table1*Table2*Table4*List1(Quantities)" '( 9 10 11 12 35 36 37 38 39 40 41 42 43 44 45 46 49 50 51 53 54 55 57 66 67 84 95 96 99 102 105 106))
(cx-gui-do cx-activate-item "Export*Table1*Table2*Table4*List1(Quantities)")
(cx-gui-do cx-activate-item "Export*PanelButtons*PushButton1(OK)")
(cx-gui-do cx-set-file-dialog-entries "Select File" '( "1DChannelFlow_RSTM_Re-180_Data") "ASCII Files ()")
(cx-gui-do cx-activate-item "Question*OK")
Writing "C:/Users/s420833/OneDrive - Cranfield University/Group Project_2023-24/Simulations/1D_Channel_Flow-ReynoldsStressTransportModel/Re_180/1DChannelFlow_RSTM_Re-180_Data"...
Writing information to ascii file ...
Done.

(cx-gui-do cx-activate-item "Export*PanelButtons*PushButton2(Cancel)")
(cx-gui-do cx-activate-item "MenuBar*FileMenu*Exit")
Auto-Transcript Stop Time:  16:42:57, 11 Apr 2024 GMT Summer Time 
Total Transcript Time: 1 Hour 4 Minute 31 Second.
